<?xml version="1.0" encoding="UTF-8"?>

<!-- generated on Thu Jun 10 21:24:37 2021 by Eclipse SUMO polyconvert Version 1.8.0
<configuration xmlns:xsi="http://www.w3.org/2001/XMLSchema-instance" xsi:noNamespaceSchemaLocation="http://sumo.dlr.de/xsd/polyconvertConfiguration.xsd">

    <input>
        <net-file value="osm.net.xml"/>
        <osm-files value="osm_bbox.osm.xml"/>
        <osm.keep-full-type value="true"/>
        <type-file value="/usr/share/sumo/data/typemap/osmPolyconvert.typ.xml"/>
    </input>

    <output>
        <output-file value="osm.poly.xml"/>
    </output>

    <processing>
        <poi-layer-offset value="5"/>
    </processing>

    <report>
        <verbose value="true"/>
    </report>

</configuration>
-->

<additional xmlns:xsi="http://www.w3.org/2001/XMLSchema-instance" xsi:noNamespaceSchemaLocation="http://sumo.dlr.de/xsd/additional_file.xsd">
    <location netOffset="-467762.99,-5542401.21" convBoundary="-2483.52,-1354.59,8887.58,5472.88" origBoundary="8.515089,50.020993,8.673816,50.082379" projParameter="+proj=utm +zone=32 +ellps=WGS84 +datum=WGS84 +units=m +no_defs"/>

    <poly id="107196620" type="amenity.parking" color="184,184,179" fill="1" layer="-1.00" shape="6017.646808,2313.313224 6061.224120,2296.099208 6126.504287,2323.732841 6123.578920,2327.193943 6131.482795,2331.714072 6138.930569,2338.126632 6143.690818,2343.929657 6150.203330,2353.804737 6130.372575,2362.396225 6017.646808,2313.313224"/>
    <poly id="107196623" type="building.yes" color="255,230,230" fill="1" layer="-1.00" shape="4145.375610,2701.145757 4142.885898,2693.231107 4158.086556,2688.448031 4160.576190,2696.351569 4145.375610,2701.145757"/>
    <poly id="111224708" type="aeroway.taxiway" color="grey" fill="0" layer="-2.00" shape="3262.946450,1258.614135 3253.338367,1256.153308 3246.874740,1252.574700 3241.191914,1249.058583 3234.989206,1243.421594 3230.546239,1237.474866 3227.180892,1232.189430 3224.061548,1224.734492 3221.540015,1215.286045"/>
    <poly id="114320556" type="building.hotel" color="255,230,230" fill="1" layer="-1.00" shape="2879.100708,2862.497516 2900.773155,2862.067283 2902.581509,2860.278349 2902.159597,2838.165260 2900.225207,2836.552516 2886.039257,2836.830476 2884.096727,2835.039881 2862.325775,2814.945313 2873.891987,2766.436959 2860.567484,2763.285650 2849.638711,2809.233195 2846.392876,2812.564447 2809.816392,2823.317336 2804.006205,2825.028250 2807.850694,2838.138468 2816.062268,2835.747217 2852.910743,2825.003995 2861.817422,2833.171909 2876.163061,2846.335705 2876.440319,2860.332822 2879.100708,2862.497516"/>
    <poly id="114320557" type="building.office" color="255,230,230" fill="1" layer="-1.00" shape="2682.778095,2808.695939 2688.138652,2826.667756 2690.705789,2835.259573 2684.625771,2836.060361 2679.810715,2835.197457 2674.003405,2832.238576 2670.322276,2828.022637 2665.997394,2813.536432 2658.500357,2815.690466 2654.501417,2801.902957 2661.898383,2799.771709 2656.362722,2781.222705 2673.107050,2776.260075 2678.671966,2794.931242 2708.481471,2786.338509 2702.887467,2767.567403 2719.624660,2762.593841 2725.262295,2781.498149 2755.736541,2772.701874 2750.106287,2753.819732 2766.843566,2748.846318 2772.517450,2767.861663 2780.243289,2765.639817 2784.241929,2779.427418 2776.616199,2781.626470 2800.529296,2861.806325 2794.456451,2862.606949 2789.641438,2861.743946 2783.834157,2858.773828 2780.146037,2854.568971 2759.842488,2786.466629 2729.368252,2795.251762 2739.162876,2828.098441 2746.703904,2853.396739 2740.630995,2854.186306 2735.815965,2853.323351 2730.008706,2850.364409 2726.320476,2846.148471 2715.694332,2810.504451 2712.587468,2800.092109 2682.778095,2808.695939"/>
    <poly id="114320558" type="building.hotel" color="255,230,230" fill="1" layer="-1.00" shape="3104.359043,2458.841468 3105.388038,2470.332750 3105.707946,2473.866801 3186.997799,2466.597791 3186.678126,2463.097091 3185.641965,2451.572478 3142.252901,2455.455256 3141.833789,2450.787621 3135.050653,2451.391578 3135.469771,2456.059212 3104.359043,2458.841468"/>
    <poly id="114320558#1" type="tourism.hotel" color="207,245,201" fill="1" layer="-2.00" shape="3104.359043,2458.841468 3105.388038,2470.332750 3105.707946,2473.866801 3186.997799,2466.597791 3186.678126,2463.097091 3185.641965,2451.572478 3142.252901,2455.455256 3141.833789,2450.787621 3135.050653,2451.391578 3135.469771,2456.059212 3104.359043,2458.841468"/>
    <poly id="114320559" type="amenity.restaurant" color="237,199,199" fill="1" layer="-1.00" shape="2821.957292,2766.155233 2883.490156,2747.982578 2879.588283,2734.828149 2818.055340,2753.011967 2821.957292,2766.155233"/>
    <poly id="114320559#1" type="building.retail" color="255,230,230" fill="1" layer="-1.00" shape="2821.957292,2766.155233 2883.490156,2747.982578 2879.588283,2734.828149 2818.055340,2753.011967 2821.957292,2766.155233"/>
    <poly id="114320569" type="amenity.parking" color="184,184,179" fill="1" layer="-1.00" shape="2645.291271,2762.237335 2643.283697,2761.648023 2642.624256,2760.195101 2642.791889,2758.148304 2648.000138,2743.375886 2655.118695,2741.368476 2660.691743,2723.947766 2661.621585,2722.519411 2662.633117,2721.624310 2664.139666,2720.926612 2755.913720,2695.747294 2799.865165,2711.205073 2800.882046,2712.578215 2801.277149,2714.132680 2800.899850,2715.813704 2799.553086,2716.933000 2771.716480,2725.114074 2732.266591,2736.717230 2726.549267,2738.405478 2727.862194,2742.834658 2717.034956,2746.018797 2715.729179,2741.589579 2645.291271,2762.237335"/>
    <poly id="114320569#1" type="building.parking" color="255,230,230" fill="1" layer="-1.00" shape="2645.291271,2762.237335 2643.283697,2761.648023 2642.624256,2760.195101 2642.791889,2758.148304 2648.000138,2743.375886 2655.118695,2741.368476 2660.691743,2723.947766 2661.621585,2722.519411 2662.633117,2721.624310 2664.139666,2720.926612 2755.913720,2695.747294 2799.865165,2711.205073 2800.882046,2712.578215 2801.277149,2714.132680 2800.899850,2715.813704 2799.553086,2716.933000 2771.716480,2725.114074 2732.266591,2736.717230 2726.549267,2738.405478 2727.862194,2742.834658 2717.034956,2746.018797 2715.729179,2741.589579 2645.291271,2762.237335"/>
    <poly id="125031835" type="aeroway.terminal" color="grey" fill="1" layer="-2.00" shape="2895.592591,2121.068876 2898.752834,2112.490037 2901.101821,2106.106060 2863.275663,2092.259379 2860.884372,2098.754793 2857.766524,2107.222233 2895.592591,2121.068876"/>
    <poly id="125031835#1" type="building.transportation" color="255,230,230" fill="1" layer="-1.00" shape="2895.592591,2121.068876 2898.752834,2112.490037 2901.101821,2106.106060 2863.275663,2092.259379 2860.884372,2098.754793 2857.766524,2107.222233 2895.592591,2121.068876"/>
    <poly id="125031841" type="aeroway.terminal" color="grey" fill="1" layer="-2.00" shape="2462.556971,1961.226068 2465.200623,1953.839561 2467.724372,1946.776170 2430.443446,1933.541033 2427.835069,1940.827291 2425.283291,1947.990928 2428.289040,1949.063829 2431.423899,1950.180488 2462.556971,1961.226068"/>
    <poly id="125031841#1" type="building.transportation" color="255,230,230" fill="1" layer="-1.00" shape="2462.556971,1961.226068 2465.200623,1953.839561 2467.724372,1946.776170 2430.443446,1933.541033 2427.835069,1940.827291 2425.283291,1947.990928 2428.289040,1949.063829 2431.423899,1950.180488 2462.556971,1961.226068"/>
    <poly id="125031858" type="aeroway.terminal" color="grey" fill="1" layer="-2.00" shape="2479.090539,1968.138963 2484.317786,1954.144621 2521.329103,1967.870857 2516.101835,1981.876282 2479.090539,1968.138963"/>
    <poly id="125031858#1" type="building.transportation" color="255,230,230" fill="1" layer="-1.00" shape="2479.090539,1968.138963 2484.317786,1954.144621 2521.329103,1967.870857 2516.101835,1981.876282 2479.090539,1968.138963"/>
    <poly id="125031882" type="aeroway.terminal" color="grey" fill="1" layer="-2.00" shape="2907.053431,2127.432727 2909.227958,2121.872505 2912.725695,2112.168821 2951.341373,2126.434045 2947.919280,2135.581347 2945.676173,2141.697871 2907.053431,2127.432727"/>
    <poly id="125031882#1" type="building.transportation" color="255,230,230" fill="1" layer="-1.00" shape="2907.053431,2127.432727 2909.227958,2121.872505 2912.725695,2112.168821 2951.341373,2126.434045 2947.919280,2135.581347 2945.676173,2141.697871 2907.053431,2127.432727"/>
    <poly id="130885330" type="building.yes" color="255,230,230" fill="1" layer="-1.00" shape="3292.006157,2136.777565 3292.258049,2126.435685 3307.186748,2126.799696 3306.934767,2137.130456 3292.006157,2136.777565"/>
    <poly id="130885331" type="building.roof" color="255,230,230" fill="1" layer="-1.00" shape="3444.886806,1926.262634 3445.421763,1897.951218 3492.929260,1898.852152 3492.386892,1927.163601 3444.886806,1926.262634"/>
    <poly id="139100611" type="aeroway.apron" color="grey" fill="1" layer="-2.00" shape="2603.370216,1734.309291 2590.007469,1733.794012 2579.216824,1731.018504 2517.380238,1710.624950 2494.583519,1706.704354 2302.777555,1636.657765 2262.058520,1621.074703 2237.245107,1611.295744 2219.006625,1603.203434 2203.747609,1595.294602 2196.071684,1590.089593 2215.180027,1538.813424 2217.702853,1532.884045 2220.856636,1529.664127 2225.003887,1527.405978 2229.767821,1526.589824 2249.672375,1531.692985 2265.717506,1535.483573 2328.560972,1558.703919 2373.333752,1574.465003 2406.954469,1586.952961 2580.177580,1649.878994 2623.104328,1670.010972 2626.625126,1681.332705 2626.903433,1687.635548 2622.759743,1699.600113 2616.044292,1715.181423 2607.112703,1732.654097 2603.370216,1734.309291"/>
    <poly id="145813456" type="aeroway.runway" color="grey" fill="0" layer="-2.00" shape="2665.220660,1328.463138 2623.938427,1313.547560 2569.536521,1294.413143 2551.890085,1288.595776 2515.893183,1273.985278 2305.812110,1197.346464 2271.443812,1184.818833 2220.744805,1166.323221 2203.603498,1160.070528 2009.901793,1089.422257 2003.322054,1087.024395 1961.776921,1071.870766 1923.324204,1057.856301 1901.288571,1049.819923 1665.874131,963.976544 1494.159088,901.360283 1310.477651,834.393324 1297.647575,829.819791 1254.004791,814.216756 1201.105065,795.320967 1126.960414,769.377474 1108.072595,762.471289 1033.264022,733.352954 783.970757,642.492141 547.587070,556.347537 481.596682,532.310462 456.097391,523.010757 382.398161,496.163123 190.662208,427.102990 -92.647188,324.678250 -150.411335,303.567982 -171.606393,295.835209 -178.058999,293.472599 -373.117080,222.284467 -431.979035,201.206143 -938.553792,15.989675 -1025.938841,-14.189610 -1064.050603,-29.552491 -1091.844744,-40.754164"/>
    <poly id="150937367" type="landuse.railway" color="194,194,130" fill="0" layer="-3.00" shape="5282.756912,3328.532452 5315.978438,3406.063435 5331.637752,3455.663522 5364.950826,3537.463979 5388.930098,3572.223284"/>
    <poly id="152367116" type="building.yes" color="255,230,230" fill="1" layer="-1.00" shape="3391.050710,2307.795153 3426.897528,2304.255225 3425.603103,2291.208683 3389.756197,2294.748619 3391.050710,2307.795153"/>
    <poly id="152367117" type="building.yes" color="255,230,230" fill="1" layer="-1.00" shape="2669.869955,1992.321092 2701.879181,2003.996991 2733.199648,2015.432264 2738.789421,1999.557091 2731.550840,1996.861768 2724.914840,1994.385508 2675.848737,1976.910694 2669.869955,1992.321092"/>
    <poly id="152367118" type="building.yes" color="255,230,230" fill="1" layer="-1.00" shape="2904.946539,2073.506774 2930.512437,2082.739860 2929.087827,2086.672614 2939.725918,2090.517065 2941.256397,2086.305763 2966.764776,2095.517098 2970.728558,2084.610069 2909.016012,2062.310030 2904.946539,2073.506774"/>
    <poly id="152367119" type="building.yes" color="255,230,230" fill="1" layer="-1.00" shape="2446.581247,1893.779110 2442.864682,1903.917955 2468.769923,1913.369334 2466.936249,1918.360780 2476.707146,1921.920050 2478.540828,1916.928608 2504.324049,1926.347481 2508.040713,1916.208678 2446.581247,1893.779110"/>
    <poly id="152367120" type="building.yes" color="255,230,230" fill="1" layer="-1.00" shape="2661.566244,1973.086908 2600.280276,1950.721338 2596.351768,1961.417191 2621.955156,1970.759792 2620.636220,1974.347360 2631.088501,1978.169992 2632.513169,1974.281632 2657.750579,1983.493002 2661.566244,1973.086908"/>
    <poly id="152367121" type="building.yes" color="255,230,230" fill="1" layer="-1.00" shape="2580.880289,1954.931684 2584.756869,1943.913660 2522.750868,1922.220094 2518.810954,1933.416417 2544.613342,1942.446216 2543.295376,1946.200581 2553.876016,1949.911162 2555.264593,1945.978506 2580.880289,1954.931684"/>
    <poly id="152367122" type="building.yes" color="255,230,230" fill="1" layer="-1.00" shape="2828.208666,2045.107980 2853.768897,2054.563109 2852.181572,2058.841462 2862.762808,2062.741667 2864.307858,2058.585857 2891.517816,2068.632526 2895.779095,2057.167867 2832.420388,2033.765850 2828.208666,2045.107980"/>
    <poly id="152377577" type="building.yes" color="255,230,230" fill="1" layer="-1.00" shape="3377.850695,2651.660866 3381.293245,2651.542225 3381.114914,2646.350688 3377.665202,2646.469367 3377.850695,2651.660866"/>
    <poly id="152377578" type="building.yes" color="255,230,230" fill="1" layer="-1.00" shape="3575.349040,2636.622655 3653.122542,2629.424026 3652.097542,2618.455211 3612.180378,2622.148855 3574.331041,2625.653816 3575.349040,2636.622655"/>
    <poly id="152377581" type="building.yes" color="255,230,230" fill="1" layer="-1.00" shape="3361.692083,2645.966265 3363.008024,2643.090501 3355.982736,2639.903961 3354.666737,2642.768609 3361.692083,2645.966265"/>
    <poly id="152377585" type="building.yes" color="255,230,230" fill="1" layer="-1.00" shape="3646.566273,2649.673109 3653.656180,2648.912497 3652.947901,2642.289454 3645.857926,2643.038949 3646.566273,2649.673109"/>
    <poly id="152382345" type="building.yes" color="255,230,230" fill="1" layer="-1.00" shape="2885.352432,2746.882711 2895.001183,2744.161251 2890.095987,2726.876105 2880.447206,2729.597574 2885.352432,2746.882711"/>
    <poly id="152382347" type="building.roof" color="255,230,230" fill="1" layer="-1.00" shape="2821.055854,2865.173606 2833.418181,2852.196643 2824.790588,2844.016121 2812.428323,2857.004223 2821.055854,2865.173606"/>
    <poly id="152382350" type="building.yes" color="255,230,230" fill="1" layer="-1.00" shape="2910.690555,2775.208004 2919.553286,2772.746631 2915.909940,2759.724185 2907.047250,2762.196682 2910.690555,2775.208004"/>
    <poly id="152444046" type="building.hotel" color="255,230,230" fill="1" layer="-1.00" shape="2809.816392,2823.317336 2807.882094,2817.824144 2820.490074,2805.246080 2815.077362,2799.838728 2832.383041,2782.387036 2837.664037,2787.272542 2845.829619,2779.099787 2840.947661,2762.159240 2857.405710,2757.165407 2859.137355,2762.259451 2892.319704,2752.515101 2902.231806,2787.373936 2893.903823,2789.443244 2901.471472,2817.109922 2884.096727,2835.039881 2862.325775,2814.945313 2873.891987,2766.436959 2860.567484,2763.285650 2849.638711,2809.233195 2846.392876,2812.564447 2809.816392,2823.317336"/>
    <poly id="152444050" type="building.hotel" color="255,230,230" fill="1" layer="-1.00" shape="2816.062268,2835.747217 2852.910743,2825.003995 2861.817422,2833.171909 2838.822076,2857.314971 2833.418181,2852.196643 2824.790588,2844.016121 2816.062268,2835.747217"/>
    <poly id="152444050#1" type="tourism.hotel" color="207,245,201" fill="1" layer="-2.00" shape="2816.062268,2835.747217 2852.910743,2825.003995 2861.817422,2833.171909 2838.822076,2857.314971 2833.418181,2852.196643 2824.790588,2844.016121 2816.062268,2835.747217"/>
    <poly id="152446432" type="building.yes" color="255,230,230" fill="1" layer="-1.00" shape="3395.291323,2277.729195 3422.082476,2274.215825 3421.082309,2266.627048 3394.582236,2272.351501 3395.291323,2277.729195"/>
    <poly id="152446433" type="amenity.parking" color="184,184,179" fill="1" layer="-1.00" shape="2839.797622,2858.988557 2851.792964,2870.408425 2874.317107,2869.962287 2874.288360,2864.725464 2854.918084,2864.653928 2850.539299,2862.409736 2843.029230,2855.679616 2839.797622,2858.988557"/>
    <poly id="156265646" type="building.yes" color="255,230,230" fill="1" layer="-1.00" shape="4851.051277,2475.043473 4854.304179,2471.413208 4852.384001,2469.688502 4849.131156,2473.329887 4851.051277,2475.043473"/>
    <poly id="156265647" type="building.prefabricated" color="255,230,230" fill="1" layer="-1.00" shape="4862.351613,2487.027311 4866.466416,2482.558731 4862.050272,2478.500724 4860.925501,2479.729549 4855.531139,2474.764809 4852.548266,2478.004533 4862.351613,2487.027311"/>
    <poly id="156265648" type="landuse.forest" color="140,196,107" fill="0" layer="-3.00" shape="4306.779840,2229.184972 4306.938338,2228.005550 4306.744104,2225.082314 4305.569022,2220.774348 4286.491312,2222.319427 4273.344377,2224.467346 4256.449573,2228.636284 4242.500298,2233.412516 4242.265098,2237.716730 4242.502893,2244.853768 4243.812404,2250.217306 4245.227789,2252.555971 4301.386486,2257.466048 4305.441741,2253.986922"/>
    <poly id="156265656" type="landuse.grass" color="194,194,130" fill="1" layer="-3.00" shape="4109.835312,2556.976762 4105.135675,2552.198140 4101.880934,2548.568282 4098.012525,2543.952077 4095.133950,2539.708709 4091.423736,2533.868606 4088.094157,2526.903501 4085.816477,2521.222647 4083.470798,2514.863903 4081.957826,2508.945531 4080.287034,2501.604780 4079.684030,2497.204898 4079.226202,2491.825796 4079.151296,2481.674702 4079.604613,2473.955850 4080.140634,2468.349140 4081.427123,2462.516104 4083.851380,2453.875137 4086.802249,2445.998599 4090.746166,2437.738797 4099.150746,2424.185213 4107.183919,2412.145755 4109.604712,2406.918298 4111.193894,2401.461719 4111.727592,2396.766769 4111.799520,2391.384880 4110.965470,2386.608170 4108.621342,2380.549616 4106.348451,2377.148088 4103.165952,2373.662394 4099.759111,2371.078506 4096.957271,2369.191924 4093.089505,2367.444376 4088.622463,2366.089144 4084.152590,2365.556723 4078.927478,2365.706529 4072.944769,2367.450320 4066.653059,2370.329865 4062.868491,2373.507541 4059.227143,2378.052081 4055.667767,2383.207726 4049.532589,2398.128156 4046.273979,2407.373951 4047.616136,2408.034009 4055.566889,2396.673155 4060.428566,2381.892866 4067.840203,2375.538343 4074.511329,2371.300305 4081.670848,2370.084026 4088.296673,2370.838596 4094.437212,2373.241313 4099.507353,2376.294559 4104.071169,2382.441505 4106.323818,2388.800746 4106.325793,2395.983496 4105.790555,2401.745862 4103.228706,2410.098452 4081.558685,2445.347944 4077.002311,2463.729108 4075.722108,2469.395330 4075.186893,2476.514196 4075.496395,2486.352729 4077.508958,2504.221208 4082.187714,2521.341813 4085.188937,2529.843041 4089.935029,2538.001524 4096.173491,2546.808171 4104.429382,2556.738336 4109.835312,2556.976762"/>
    <poly id="156265657" type="landuse.grass" color="194,194,130" fill="1" layer="-3.00" shape="4373.243851,2182.517420 4318.310509,2188.941382 4292.876894,2194.867066 4271.414536,2201.772806 4252.938838,2208.929862 4231.592465,2218.826118 4212.040284,2229.558092 4191.413391,2241.474367 4171.264780,2254.477858 4154.931544,2266.038189 4127.755575,2289.052320 4107.601813,2306.459136 4089.001604,2323.857855 4078.276641,2335.900386 4069.930955,2348.419640 4060.987487,2362.965682 4061.468151,2364.519786 4063.494085,2364.520236 4066.232379,2362.493309 4071.715238,2359.629140 4080.300148,2358.561019 4090.676966,2359.273614 4099.974190,2362.971752 4109.990217,2371.313795 4114.041999,2378.108334 4116.304981,2383.711444 4118.693628,2395.518199 4117.979179,2401.237030 4115.593761,2409.110578 4112.612526,2415.308316 4104.505890,2426.992350 4096.872977,2438.907399 4091.626109,2449.875926 4088.528008,2458.342534 4085.906642,2471.698918 4085.308408,2485.889689 4086.743160,2500.069762 4090.077506,2514.740188 4093.295166,2523.562726 4097.236066,2531.069441 4103.075001,2540.133931 4109.628723,2547.638033 4120.244582,2558.489796 4129.543159,2566.602150 4136.218502,2574.105646 4159.368789,2604.060515 4182.557625,2610.020853 4250.687995,2601.113609 4311.532632,2596.581605 4346.223010,2599.424946 4389.928390,2591.758763 4390.024536,2589.601211 4346.999346,2597.297203 4311.898032,2593.900061 4250.871263,2599.200212 4182.760360,2607.729311 4160.997758,2602.095052 4139.788387,2573.686617 4125.932138,2559.193748 4111.099592,2544.194582 4102.602089,2533.242745 4096.594701,2523.456418 4093.254477,2514.467740 4090.526183,2500.694749 4089.360881,2490.104638 4090.191785,2475.234395 4093.018145,2460.020090 4100.808743,2441.343959 4109.977871,2428.876015 4121.518088,2405.799386 4122.391930,2393.630800 4121.018635,2384.320443 4116.253610,2373.938268 4107.835207,2361.740699 4099.356311,2357.104262 4093.274545,2354.990320 4086.839701,2353.801104 4073.841483,2352.846583 4081.715424,2343.187355 4089.223076,2333.296571 4117.119514,2301.694721 4130.947875,2288.946598 4160.754585,2265.218191 4188.773202,2247.214401 4202.129129,2238.516193 4226.087730,2225.759723 4243.882149,2217.027266 4266.268610,2207.514779 4293.694707,2197.931589 4322.302267,2192.489694 4373.243851,2182.517420"/>
    <poly id="156265658" type="landuse.grass" color="194,194,130" fill="1" layer="-3.00" shape="4103.405301,2171.409754 4103.153508,2168.453472 4147.415717,2165.330010 4203.474865,2160.610693 4258.611487,2156.063570 4316.525833,2151.502520 4337.852786,2150.157078 4337.938869,2152.936333 4293.090306,2156.228061 4235.428741,2161.199439 4172.791770,2166.175297 4103.405301,2171.409754"/>
    <poly id="156265659" type="landuse.grass" color="194,194,130" fill="1" layer="-3.00" shape="3458.433802,2222.017375 3458.098841,2218.305486 3500.586306,2215.441947 3558.147941,2210.741144 3629.106579,2205.157636 3675.886238,2201.661005 3770.773477,2195.295680 3846.057812,2188.602394 3847.142115,2191.921169 3770.622253,2199.165836 3676.022977,2205.818717 3629.240858,2208.848369 3558.044062,2214.066232 3510.700291,2217.800419 3458.433802,2222.017375"/>
    <poly id="156265660" type="landuse.grass" color="194,194,130" fill="1" layer="-3.00" shape="4093.258843,2709.870011 4094.223784,2709.598082 4104.613292,2740.075741 4110.612504,2759.246414 4115.115140,2771.520168 4122.343588,2793.052703 4129.364632,2814.630814 4135.626066,2833.333147 4138.576404,2841.734604 4135.680771,2842.383588 4131.339924,2828.185409 4122.237742,2801.514690 4113.878651,2775.963082 4104.879164,2748.435703 4096.686031,2721.804723 4093.258843,2709.870011"/>
    <poly id="156265661" type="landuse.grass" color="194,194,130" fill="1" layer="-3.00" shape="3893.431237,2011.995556 3895.873557,2025.703245 3897.425195,2041.561585 3897.718500,2055.036044 3899.214361,2079.289393 3899.150595,2083.470408 3892.058941,2062.426685 3887.110861,2048.710036 3884.901416,2039.771091 3884.428069,2032.857692 3885.381606,2026.359247 3887.049365,2026.294816 3887.702460,2022.544312 3889.554504,2018.075852 3891.163230,2014.976296 3893.431237,2011.995556"/>
    <poly id="156265662" type="landuse.grass" color="194,194,130" fill="1" layer="-3.00" shape="4012.684656,2210.492123 4043.511137,2207.761141 4056.844726,2207.079358 4066.763503,2207.760966 4074.036671,2210.413430 4082.147856,2214.506941 4087.674655,2218.602942 4091.461340,2222.608033 4092.974330,2224.434680 4084.266647,2223.980146 4076.460556,2223.443049 4076.083171,2225.190691 4065.177647,2223.369024 4052.528144,2220.722654 4029.572778,2214.583735 4017.150322,2211.558211 4012.684656,2210.492123"/>
    <poly id="156265663" type="landuse.grass" color="194,194,130" fill="1" layer="-3.00" shape="3745.568031,1718.265530 3769.773382,1793.366637 3792.543177,1862.515799 3807.447698,1908.057111 3819.129753,1944.064511 3839.043797,2004.156085 3858.356638,2064.362111 3878.032476,2122.898461 3885.899093,2146.984619 3881.847058,2146.983855 3856.923985,2069.606676 3832.130764,1993.896751 3804.948521,1911.995334 3778.241942,1829.491113 3755.820744,1759.984355 3742.230312,1718.016451 3745.568031,1718.265530"/>
    <poly id="156265664" type="landuse.grass" color="194,194,130" fill="1" layer="-3.00" shape="3911.581407,2224.580291 3924.817854,2266.428201 3946.634384,2330.690795 3963.325729,2381.593496 3988.242054,2458.248492 4006.727672,2515.601897 4023.653877,2567.815573 4032.714804,2594.642003 4050.721615,2649.607539 4047.138995,2650.315785 4031.883587,2602.629705 4013.640206,2547.665482 3989.439437,2473.519440 3966.065139,2402.815978 3945.559356,2341.292721 3920.402481,2264.038783 3908.007832,2224.343479 3911.581407,2224.580291"/>
    <poly id="156265665" type="landuse.grass" color="194,194,130" fill="1" layer="-3.00" shape="3939.547034,2157.419151 3987.884631,2153.294360 4023.286234,2150.594704 4072.013573,2147.046798 4107.421510,2145.537379 4135.410333,2144.945544 4180.935350,2143.683691 4225.362866,2140.637842 4280.750271,2136.089636 4323.995814,2132.884001 4323.997008,2134.485104 4285.640699,2137.609601 4225.701488,2142.415080 4159.857018,2147.385644 4087.108638,2153.205013 4024.551791,2158.437918 3980.213013,2161.974197 3941.890522,2164.656230 3939.889087,2158.473630 3939.547034,2157.419151"/>
    <poly id="156265666" type="landuse.grass" color="194,194,130" fill="1" layer="-3.00" shape="4017.585428,2611.611295 4008.483381,2583.784411 3995.499005,2544.670188 3982.600754,2505.633374 3966.500012,2455.305666 3956.634235,2426.648997 3960.514657,2447.042653 3963.378093,2468.709234 3964.728889,2487.259420 3965.314823,2495.184049 3966.669111,2495.432625 3966.831591,2512.632595 3965.993712,2528.826038 3977.036825,2540.542530 3987.572060,2552.339559 3995.325832,2562.038714 4002.324730,2573.843323 4008.648313,2589.265124 4017.585428,2611.611295"/>
    <poly id="156265667" type="landuse.forest" color="140,196,107" fill="1" layer="-3.00" shape="4058.643837,2117.785746 4058.882469,2108.722651 4061.030470,2100.616837 4067.467693,2091.320964 4073.906775,2089.174490 4085.590663,2094.650174 4093.933438,2099.187237 4105.615152,2105.619194 4111.097630,2109.437482 4115.872769,2118.974567 4113.243820,2126.849391 4109.673408,2129.948073 4101.798400,2129.945004 4090.592451,2126.846199 4080.106123,2124.455234 4071.284008,2125.413413 4066.036424,2125.418803 4060.312151,2123.269658 4058.643837,2117.785746"/>
    <poly id="156265668" type="landuse.forest" color="140,196,107" fill="1" layer="-3.00" shape="3990.206435,2083.211286 3994.026083,2079.866594 3994.261676,2072.960563 3991.879080,2065.089896 3985.680622,2057.217140 3981.183177,2051.514697 3975.515476,2049.254154 3966.361523,2048.401890 3948.242793,2052.689453 3939.182160,2058.652579 3936.080889,2066.518871 3932.508000,2073.197945 3928.929123,2092.274541 3930.121265,2097.038208 3939.183044,2095.366925 3950.628023,2090.836638 3958.016282,2090.842058 3969.941715,2089.166811 3980.191189,2084.642904 3990.206435,2083.211286"/>
    <poly id="156265669" type="landuse.grass" color="194,194,130" fill="1" layer="-3.00" shape="3701.313404,2146.331462 3703.994706,2149.730642 3709.362664,2154.850034 3716.277207,2158.671403 3724.680947,2161.172823 3731.127699,2161.850076 3797.507305,2157.983269 3788.580112,2155.317736 3757.574929,2147.377063 3740.969070,2143.940814 3725.573889,2143.344584 3719.790352,2143.531071 3719.789534,2144.720790 3711.085715,2145.022922 3704.409161,2145.558871 3701.313404,2146.331462"/>
    <poly id="156265670" type="landuse.grass" color="194,194,130" fill="1" layer="-3.00" shape="3902.566205,2413.425712 3898.632100,2393.755104 3896.126521,2377.534888 3894.929352,2363.709408 3894.578545,2347.488897 3894.578568,2331.277646 3893.979103,2307.308630 3893.384540,2293.724574 3893.140473,2289.545188 3895.292819,2289.077913 3902.684063,2312.677389 3908.286000,2329.603934 3914.839629,2349.160609 3921.557643,2370.028444 3923.879926,2380.034217 3923.762863,2387.673471 3922.148314,2395.064918 3919.109813,2402.575091 3916.132266,2405.370560 3914.280600,2404.479737 3910.229715,2408.715221 3905.217948,2412.644469 3902.566205,2413.425712"/>
    <poly id="156265671" type="landuse.grass" color="194,194,130" fill="1" layer="-3.00" shape="3456.173633,2237.039959 3497.782512,2234.570281 3556.787325,2229.361363 3630.056627,2223.509744 3675.762311,2220.018854 3770.940664,2213.262816 3851.473727,2206.841887 3853.750268,2214.935434 3811.765167,2218.060350 3764.891859,2221.433985 3734.708333,2223.874060 3630.760950,2232.056359 3556.699673,2233.042166 3497.961020,2237.148891 3456.157439,2239.352764 3456.173633,2237.039959"/>
    <poly id="156265672" type="landuse.grass" color="194,194,130" fill="1" layer="-3.00" shape="4072.062228,2543.832907 4071.905974,2525.031792 4071.044654,2517.797971 4069.174868,2506.655632 4067.133492,2496.915169 4064.139763,2485.767632 4057.710747,2467.989132 4051.338043,2454.113052 4046.137917,2444.044557 4040.835726,2434.988419 4041.858196,2429.323547 4051.588648,2447.329247 4059.279436,2462.732783 4063.103331,2473.831470 4067.612087,2488.562410 4070.792185,2502.477556 4073.825378,2518.405985 4075.566329,2536.353726 4075.005690,2545.440760 4072.062228,2543.832907"/>
    <poly id="156265673" type="landuse.grass" color="194,194,130" fill="1" layer="-3.00" shape="3458.489522,2204.427081 3522.267879,2198.880782 3569.629668,2194.468354 3628.029758,2189.875002 3674.142237,2186.092836 3769.803614,2179.856789 3839.883501,2174.503134 3837.079311,2165.467294 3768.794459,2170.488988 3730.181148,2172.306817 3719.572354,2172.474541 3712.490182,2170.777758 3706.759365,2168.762451 3702.456280,2165.983454 3696.808953,2160.832202 3692.426615,2156.619308 3687.282602,2149.197140 3672.357457,2153.501958 3671.605693,2152.149475 3661.148702,2156.619491 3645.448335,2164.553264 3625.839865,2173.953429 3610.484573,2179.461556 3595.463277,2184.500948 3584.414758,2186.772754 3569.222975,2188.043849 3521.610808,2191.167839 3457.963909,2197.213785 3458.489522,2204.427081"/>