<?xml version="1.0" encoding="UTF-8"?>

<routes xmlns:xsi="http://www.w3.org/2001/XMLSchema-instance" xsi:noNamespaceSchemaLocation="http://sumo.dlr.de/xsd/routes_file.xsd">

    <!--
        truck, semitrailer and truck_trailer size calculated by using inner size from [0]
        and adding 2m length and 1m height according to [1]

        [0] https://www.alpensped.de/leistungen/fuhrpark/
        [1] https://www.wuerth-transporte.de/1.html
    -->
    <vType id="motorcycle" vClass="motorcycle" lcStrategic="0.75" lcCooperative="0.7" lcLookaheadLeft="0.7" lcPushy="0.2" lcAssertive="1.5" lcSigma="0.2" />
    <vType id="passenger" vClass="passenger" lcStrategic="0.75" lcCooperative="0.7" lcLookaheadLeft="0.7" lcPushy="0.2" lcAssertive="1.5" lcSigma="0.2" />
    <vType id="passenger_misc" vClass="passenger" lcStrategic="0.75" lcCooperative="0.7" lcLookaheadLeft="0.7" lcPushy="0.2" lcAssertive="1.5" lcSigma="0.2" />
    <vType id="van" vClass="passenger" guiShape="passenger/van" length="4.7" width="1.9" height="1.73" lcStrategic="0.75" lcCooperative="0.7" lcLookaheadLeft="0.7" lcPushy="0.2" lcAssertive="1.5" lcSigma="0.2" />
    <vType id="passenger_trailer" vClass="passenger" length="7.5" width="2" height="2.2" lcStrategic="0.75" lcCooperative="0.7" lcLookaheadLeft="0.7" lcPushy="0.2" lcAssertive="1.5" lcSigma="0.2" />
    <vType id="truck" vClass="truck" length="9" width="2.45" height="3.6" maxSpeed="22.22" lcStrategic="0.75" lcCooperative="0.7" lcLookaheadLeft="0.7" lcPushy="0.2" lcAssertive="1.5" lcSigma="0.2" lcKeepRight="100" lcSpeedGain="0.1" />
    <vType id="semitrailer" vClass="truck" guiShape="truck/semitrailer" length="15.6" width="2.5" height="4.04" maxSpeed="22.22" lcStrategic="0.75" lcCooperative="0.7" lcLookaheadLeft="0.7" lcPushy="0.2" lcAssertive="1.5" lcSigma="0.2" lcKeepRight="100" lcSpeedGain="0.1" />
    <vType id="truck_trailer" vClass="truck" guiShape="truck/trailer" length="17.6" width="2.5" height="4.20" maxSpeed="22.22" lcStrategic="0.75" lcCooperative="0.7" lcLookaheadLeft="0.7" lcPushy="0.2" lcAssertive="1.5" lcSigma="0.2" lcKeepRight="100" lcSpeedGain="0.1" />
    <vType id="bus" vClass="bus" maxSpeed="22.22" lcStrategic="0.75" lcCooperative="0.7" lcLookaheadLeft="0.7" lcPushy="0.2" lcAssertive="1.5" lcSigma="0.2" lcKeepRight="100" lcSpeedGain="0.1" />

    <route edges="3993621 3993622" color="yellow" id="A3O-A3W" />
    <route edges="3993621 4488572 387746873 153320423 132979567 23286294 4488573 419865347 4488587 234004932 4488588 39175423" color="yellow" id="A3O-A3W-alt" />
    <route edges="3993621 4488572 387746873 153320423 132979567 20437071 4780826 132979549 23286356 23286447 A5N1" color="yellow" id="A3O-A5N" />
    <route edges="3993621 4488572 387746873 153320423 132979567 23286294 4488573 4488575 4488577 23286237 481371695 236522916 A5S2" color="yellow" id="A3O-A5S" />
    <route edges="133039111 4728785 37976720 152367113 307216717 3993482 153261740 153261739 3993501" color="yellow" id="A3W-A3O" />
    <route edges="133039111 20644480 108035020 228932147 4728850 387746860 20630373 4893840 234004960 387746834 4488560#0 4488560#1 387746832 4488561 26529486 387746829#1 132979552 A5N1" color="yellow" id="A3W-A5N" />
    <route edges="133039111 20644480 108035020 228932147 4728850 387746860 4488582 228932146 481371695 236522916 A5S2" color="yellow" id="A3W-A5S" />
    <route edges="133039111 20644480 108035020 228932147 4728850 387746860 20630373 4893840 234004960 387746834 4488560#0 4488560#1 387746832 4488561 26529486 387746829#1 4488569#0 4488569#1 4743817 419865353 152377568 152377560 152377574#1 234004943 38238212" color="yellow" id="A3W-B43W" />
    <route edges="A5N2 358653882-AddedOffRampEdge 321554750 387746861 75436542 23286376 4488583 4488577 20630094 4893840 234004960 387746834 4488560#0 4488560#1 387746832 4488561 26529486 387746829#1 132979552 A5N1" color="yellow" id="A5N-A5N" />
    <route edges="A5N2 358653882-AddedOffRampEdge 321554750 387746861 75436542 23286376 4488583 4488577 20630094 4893840 234004960 387746818 23286266 4488571 307213473 307216717 3993482 153261740 153261739 3993501" color="yellow" id="A5N-A3O" />
    <route edges="A5N2 358653882-AddedOffRampEdge 321554750 387746861 75436542 23286376 4488585#0 4488585#1 4488588 39175423" color="yellow" id="A5N-A3W" />
    <route edges="A5N2 358653882-AddedOffRampEdge 23286357 23286423 23286426 A5S2" color="yellow" id="A5N-A5S" />
    <route edges="A5N2 358653882-AddedOffRampEdge 321554750 4488594 419865353 152377568 152377560 152377574#1 234004943 38238212" color="yellow" id="A5N-B43W" />
    <route edges="A5S1 4488554 39175135 387746811 156265645 23286275 4488571 307213473 307216717 3993482 153261740 153261739 3993501" color="yellow" id="A5S-A3O" />
    <route edges="A5S1 4488554 20629597 387746862 132979565 4488561 387746825 4488563 4488573 419865347 4488587 234004932 4488588 39175423" color="yellow" id="A5S-A3W" />
    <route edges="A5S1 23286478 23286356 23286447 A5N1" color="yellow" id="A5S-A5N" />
    <route edges="A5S1 4488554 20629597 387746862 132979565 4488561 26529486 387746829#1 132979552 A5N1" color="yellow" id="A5S-A5N-alt" />
    <route edges="A5S1 4488554 20629597 387746862 132979565 4488561 26529486 387746829#1 4488569#0 4488569#1 4743817 419865353 152377568 152377560 152377574#1 234004943 38238212" color="yellow" id="A5S-B43W" />
    <route edges="23337333 4746513 23337441 4743817 419865353 152377568 152377560 152377574#1 234004943 38238212" color="yellow" id="B43O-B43W" />
    <route edges="89837133 152303549 433450247 45781803 152377567 152377561 152446429 49203928 387746833 4780826 132979549 23286356 23286447 A5N1" color="yellow" id="B43W-A5N" />
    <route edges="89837133 152303549 433450247 45781803 152377567 152377561 152446429 4488584#0 4488584#1 23286423 23286426 A5S2" color="yellow" id="B43W-A5S" />
    <route edges="89837133 152303549 433450247 45781803 152377567 152377561 152446429 49203928 4743818 23337443 4746512" color="yellow" id="B43W-B43O" />

    <!--
        Flows generated by bast2scenario-tool.
        Reference file: "../ffk-reference/frankfurter-kreuz-ref.rou.xml"
        Date: 210903
        Hour: 11
        Warmup: 0
    -->

    <flow route="A3O-A3W" type="passenger" id="210903_11_flow_A3O-A3W_passenger" probability="0.40405927032748101269" begin="0" end="3599" departLane="best" departSpeed="max" />
    <flow route="A3O-A3W" type="van" id="210903_11_flow_A3O-A3W_van" probability="0.07484279666293114364" begin="0" end="3599" departLane="best" departSpeed="max" />
    <flow route="A3O-A3W" type="motorcycle" id="210903_11_flow_A3O-A3W_motorcycle" probability="0.00658126841821275906" begin="0" end="3599" departLane="best" departSpeed="max" />
    <flow route="A3O-A3W" type="passenger_misc" id="210903_11_flow_A3O-A3W_passenger_misc" probability="0.00811179595733200511" begin="0" end="3599" departLane="best" departSpeed="max" />
    <flow route="A3O-A3W" type="passenger_trailer" id="210903_11_flow_A3O-A3W_passenger_trailer" probability="0.00964232349645125116" begin="0" end="3599" departLane="best" departSpeed="max" />
    <flow route="A3O-A3W" type="bus" id="210903_11_flow_A3O-A3W_bus" probability="0.00076526376955962313" begin="0" end="3599" departLane="best" departSpeed="max" />
    <flow route="A3O-A3W" type="truck" id="210903_11_flow_A3O-A3W_truck" probability="0.03979371601710039730" begin="0" end="3599" departLane="best" departSpeed="max" />
    <flow route="A3O-A3W" type="truck_trailer" id="210903_11_flow_A3O-A3W_truck_trailer" probability="0.01515222263728053728" begin="0" end="3599" departLane="best" departSpeed="max" />
    <flow route="A3O-A3W" type="semitrailer" id="210903_11_flow_A3O-A3W_semitrailer" probability="0.06014973228738637601" begin="0" end="3599" departLane="best" departSpeed="max" />

    <flow route="A3O-A3W-alt" type="passenger" id="210903_11_flow_A3O-A3W-alt_passenger" probability="0.06492342174075457772" begin="0" end="3599" departLane="best" departSpeed="max" />
    <flow route="A3O-A3W-alt" type="van" id="210903_11_flow_A3O-A3W-alt_van" probability="0.01202558834516249606" begin="0" end="3599" departLane="best" departSpeed="max" />
    <flow route="A3O-A3W-alt" type="motorcycle" id="210903_11_flow_A3O-A3W-alt_motorcycle" probability="0.00105746482380774504" begin="0" end="3599" departLane="best" departSpeed="max" />
    <flow route="A3O-A3W-alt" type="passenger_misc" id="210903_11_flow_A3O-A3W-alt_passenger_misc" probability="0.00130338687585605773" begin="0" end="3599" departLane="best" departSpeed="max" />
    <flow route="A3O-A3W-alt" type="passenger_trailer" id="210903_11_flow_A3O-A3W-alt_passenger_trailer" probability="0.00154930892790437064" begin="0" end="3599" departLane="best" departSpeed="max" />
    <flow route="A3O-A3W-alt" type="bus" id="210903_11_flow_A3O-A3W-alt_bus" probability="0.00012296102602415640" begin="0" end="3599" departLane="best" departSpeed="max" />
    <flow route="A3O-A3W-alt" type="truck" id="210903_11_flow_A3O-A3W-alt_truck" probability="0.00639397335325613252" begin="0" end="3599" departLane="best" departSpeed="max" />
    <flow route="A3O-A3W-alt" type="truck_trailer" id="210903_11_flow_A3O-A3W-alt_truck_trailer" probability="0.00243462831527829684" begin="0" end="3599" departLane="best" departSpeed="max" />
    <flow route="A3O-A3W-alt" type="semitrailer" id="210903_11_flow_A3O-A3W-alt_semitrailer" probability="0.00966473664549869285" begin="0" end="3599" departLane="best" departSpeed="max" />

    <flow route="A3O-A5N" type="passenger" id="210903_11_flow_A3O-A5N_passenger" probability="0.17504669406051548419" begin="0" end="3599" departLane="best" departSpeed="max" />
    <flow route="A3O-A5N" type="van" id="210903_11_flow_A3O-A5N_van" probability="0.03242342174075457661" begin="0" end="3599" departLane="best" departSpeed="max" />
    <flow route="A3O-A5N" type="motorcycle" id="210903_11_flow_A3O-A5N_motorcycle" probability="0.00285113933507657839" begin="0" end="3599" departLane="best" departSpeed="max" />
    <flow route="A3O-A5N" type="passenger_misc" id="210903_11_flow_A3O-A5N_passenger_misc" probability="0.00351419499439671254" begin="0" end="3599" departLane="best" departSpeed="max" />
    <flow route="A3O-A5N" type="passenger_trailer" id="210903_11_flow_A3O-A5N_passenger_trailer" probability="0.00417725065371684669" begin="0" end="3599" departLane="best" departSpeed="max" />
    <flow route="A3O-A5N" type="bus" id="210903_11_flow_A3O-A5N_bus" probability="0.00033152782966006724" begin="0" end="3599" departLane="best" departSpeed="max" />
    <flow route="A3O-A5N" type="truck" id="210903_11_flow_A3O-A5N_truck" probability="0.01723944714232349823" begin="0" end="3599" departLane="best" departSpeed="max" />
    <flow route="A3O-A5N" type="truck_trailer" id="210903_11_flow_A3O-A5N_truck_trailer" probability="0.00656425102726933100" begin="0" end="3599" departLane="best" departSpeed="max" />
    <flow route="A3O-A5N" type="semitrailer" id="210903_11_flow_A3O-A5N_semitrailer" probability="0.02605808741128128395" begin="0" end="3599" departLane="best" departSpeed="max" />

    <flow route="A3O-A5S" type="passenger" id="210903_11_flow_A3O-A5S_passenger" probability="0.08930394720458224855" begin="0" end="3599" departLane="best" departSpeed="max" />
    <flow route="A3O-A5S" type="van" id="210903_11_flow_A3O-A5S_van" probability="0.01654152658448512087" begin="0" end="3599" departLane="best" departSpeed="max" />
    <flow route="A3O-A5S" type="motorcycle" id="210903_11_flow_A3O-A5S_motorcycle" probability="0.00145457186734736232" begin="0" end="3599" departLane="best" departSpeed="max" />
    <flow route="A3O-A5S" type="passenger_misc" id="210903_11_flow_A3O-A5S_passenger_misc" probability="0.00179284439463744667" begin="0" end="3599" departLane="best" departSpeed="max" />
    <flow route="A3O-A5S" type="passenger_trailer" id="210903_11_flow_A3O-A5S_passenger_trailer" probability="0.00213111692192753102" begin="0" end="3599" departLane="best" departSpeed="max" />
    <flow route="A3O-A5S" type="bus" id="210903_11_flow_A3O-A5S_bus" probability="0.00016913626364504215" begin="0" end="3599" departLane="best" departSpeed="max" />
    <flow route="A3O-A5S" type="truck" id="210903_11_flow_A3O-A5S_truck" probability="0.00879508570954219172" begin="0" end="3599" departLane="best" departSpeed="max" />
    <flow route="A3O-A5S" type="truck_trailer" id="210903_11_flow_A3O-A5S_truck_trailer" probability="0.00334889802017183415" begin="0" end="3599" departLane="best" departSpeed="max" />
    <flow route="A3O-A5S" type="semitrailer" id="210903_11_flow_A3O-A5S_semitrailer" probability="0.01329411032250031079" begin="0" end="3599" departLane="best" departSpeed="max" />

    <flow route="A3W-A3O" type="passenger" id="210903_11_flow_A3W-A3O_passenger" probability="0.55535442531037249037" begin="0" end="3599" departLane="best" departSpeed="max" />
    <flow route="A3W-A3O" type="van" id="210903_11_flow_A3W-A3O_van" probability="0.09884394606861567067" begin="0" end="3599" departLane="best" departSpeed="max" />
    <flow route="A3W-A3O" type="motorcycle" id="210903_11_flow_A3W-A3O_motorcycle" probability="0.00666577670982957272" begin="0" end="3599" departLane="best" departSpeed="max" />
    <flow route="A3W-A3O" type="passenger_misc" id="210903_11_flow_A3W-A3O_passenger_misc" probability="0.01123659502514127995" begin="0" end="3599" departLane="best" departSpeed="max" />
    <flow route="A3W-A3O" type="passenger_trailer" id="210903_11_flow_A3W-A3O_passenger_trailer" probability="0.01695011791928091593" begin="0" end="3599" departLane="best" departSpeed="max" />
    <flow route="A3W-A3O" type="bus" id="210903_11_flow_A3W-A3O_bus" probability="0.00247585992079384174" begin="0" end="3599" departLane="best" departSpeed="max" />
    <flow route="A3W-A3O" type="truck" id="210903_11_flow_A3W-A3O_truck" probability="0.04018511102211542313" begin="0" end="3599" departLane="best" departSpeed="max" />
    <flow route="A3W-A3O" type="truck_trailer" id="210903_11_flow_A3W-A3O_truck_trailer" probability="0.01923552707693676825" begin="0" end="3599" departLane="best" departSpeed="max" />
    <flow route="A3W-A3O" type="semitrailer" id="210903_11_flow_A3W-A3O_semitrailer" probability="0.07103813465046944498" begin="0" end="3599" departLane="best" departSpeed="max" />

    <flow route="A3W-A5N" type="passenger" id="210903_11_flow_A3W-A5N_passenger" probability="0.11450941129355225734" begin="0" end="3599" departLane="best" departSpeed="max" />
    <flow route="A3W-A5N" type="van" id="210903_11_flow_A3W-A5N_van" probability="0.02038079028167133835" begin="0" end="3599" departLane="best" departSpeed="max" />
    <flow route="A3W-A5N" type="motorcycle" id="210903_11_flow_A3W-A5N_motorcycle" probability="0.00137442709028612114" begin="0" end="3599" departLane="best" departSpeed="max" />
    <flow route="A3W-A5N" type="passenger_misc" id="210903_11_flow_A3W-A5N_passenger_misc" probability="0.00231689138076803273" begin="0" end="3599" departLane="best" departSpeed="max" />
    <flow route="A3W-A5N" type="passenger_trailer" id="210903_11_flow_A3W-A5N_passenger_trailer" probability="0.00349497174387042179" begin="0" end="3599" departLane="best" departSpeed="max" />
    <flow route="A3W-A5N" type="bus" id="210903_11_flow_A3W-A5N_bus" probability="0.00051050149067770215" begin="0" end="3599" departLane="best" departSpeed="max" />
    <flow route="A3W-A5N" type="truck" id="210903_11_flow_A3W-A5N_truck" probability="0.00828583188715347266" begin="0" end="3599" departLane="best" departSpeed="max" />
    <flow route="A3W-A5N" type="truck_trailer" id="210903_11_flow_A3W-A5N_truck_trailer" probability="0.00396620388911137801" begin="0" end="3599" departLane="best" departSpeed="max" />
    <flow route="A3W-A5N" type="semitrailer" id="210903_11_flow_A3W-A5N_semitrailer" probability="0.01464746584790637546" begin="0" end="3599" departLane="best" departSpeed="max" />

    <flow route="A3W-A5S" type="passenger" id="210903_11_flow_A3W-A5S_passenger" probability="0.13883860632759312259" begin="0" end="3599" departLane="best" departSpeed="max" />
    <flow route="A3W-A5S" type="van" id="210903_11_flow_A3W-A5S_van" probability="0.02471098651715391767" begin="0" end="3599" departLane="best" departSpeed="max" />
    <flow route="A3W-A5S" type="motorcycle" id="210903_11_flow_A3W-A5S_motorcycle" probability="0.00166644417745739318" begin="0" end="3599" departLane="best" departSpeed="max" />
    <flow route="A3W-A5S" type="passenger_misc" id="210903_11_flow_A3W-A5S_passenger_misc" probability="0.00280914875628531999" begin="0" end="3599" departLane="best" departSpeed="max" />
    <flow route="A3W-A5S" type="passenger_trailer" id="210903_11_flow_A3W-A5S_passenger_trailer" probability="0.00423752947982022898" begin="0" end="3599" departLane="best" departSpeed="max" />
    <flow route="A3W-A5S" type="bus" id="210903_11_flow_A3W-A5S_bus" probability="0.00061896498019846044" begin="0" end="3599" departLane="best" departSpeed="max" />
    <flow route="A3W-A5S" type="truck" id="210903_11_flow_A3W-A5S_truck" probability="0.01004627775552885578" begin="0" end="3599" departLane="best" departSpeed="max" />
    <flow route="A3W-A5S" type="truck_trailer" id="210903_11_flow_A3W-A5S_truck_trailer" probability="0.00480888176923419206" begin="0" end="3599" departLane="best" departSpeed="max" />
    <flow route="A3W-A5S" type="semitrailer" id="210903_11_flow_A3W-A5S_semitrailer" probability="0.01775953366261736124" begin="0" end="3599" departLane="best" departSpeed="max" />

    <flow route="A3W-B43W" type="passenger" id="210903_11_flow_A3W-B43W_passenger" probability="0.00129755706848217844" begin="0" end="3599" departLane="best" departSpeed="max" />
    <flow route="A3W-B43W" type="van" id="210903_11_flow_A3W-B43W_van" probability="0.00023094379922573757" begin="0" end="3599" departLane="best" departSpeed="max" />
    <flow route="A3W-B43W" type="motorcycle" id="210903_11_flow_A3W-B43W_motorcycle" probability="0.00001557424464913452" begin="0" end="3599" departLane="best" departSpeed="max" />
    <flow route="A3W-B43W" type="passenger_misc" id="210903_11_flow_A3W-B43W_passenger_misc" probability="0.00002625372669425533" begin="0" end="3599" departLane="best" departSpeed="max" />
    <flow route="A3W-B43W" type="passenger_trailer" id="210903_11_flow_A3W-B43W_passenger_trailer" probability="0.00003960307925065634" begin="0" end="3599" departLane="best" departSpeed="max" />
    <flow route="A3W-B43W" type="bus" id="210903_11_flow_A3W-B43W_bus" probability="0.00000578471944110711" begin="0" end="3599" departLane="best" departSpeed="max" />
    <flow route="A3W-B43W" type="truck" id="210903_11_flow_A3W-B43W_truck" probability="0.00009389044631335380" begin="0" end="3599" departLane="best" departSpeed="max" />
    <flow route="A3W-B43W" type="truck_trailer" id="210903_11_flow_A3W-B43W_truck_trailer" probability="0.00004494282027321675" begin="0" end="3599" departLane="best" departSpeed="max" />
    <flow route="A3W-B43W" type="semitrailer" id="210903_11_flow_A3W-B43W_semitrailer" probability="0.00016597695011791926" begin="0" end="3599" departLane="best" departSpeed="max" />

    <flow route="A5N-A5N" type="passenger" id="210903_11_flow_A5N-A5N_passenger" probability="0.01710023610216784493" begin="0" end="3599" departLane="best" departSpeed="max" />
    <flow route="A5N-A5N" type="van" id="210903_11_flow_A5N-A5N_van" probability="0.00216802604278457448" begin="0" end="3599" departLane="best" departSpeed="max" />
    <flow route="A5N-A5N" type="motorcycle" id="210903_11_flow_A5N-A5N_motorcycle" probability="0.00032714459469127850" begin="0" end="3599" departLane="best" departSpeed="max" />
    <flow route="A5N-A5N" type="passenger_misc" id="210903_11_flow_A5N-A5N_passenger_misc" probability="0.00041031694927380695" begin="0" end="3599" departLane="best" departSpeed="max" />
    <flow route="A5N-A5N" type="passenger_trailer" id="210903_11_flow_A5N-A5N_passenger_trailer" probability="0.00018297918008156256" begin="0" end="3599" departLane="best" departSpeed="max" />
    <flow route="A5N-A5N" type="bus" id="210903_11_flow_A5N-A5N_bus" probability="0.00006653788366602275" begin="0" end="3599" departLane="best" departSpeed="max" />
    <flow route="A5N-A5N" type="truck" id="210903_11_flow_A5N-A5N_truck" probability="0.00117550261143306860" begin="0" end="3599" departLane="best" departSpeed="max" />
    <flow route="A5N-A5N" type="truck_trailer" id="210903_11_flow_A5N-A5N_truck_trailer" probability="0.00033268941833011371" begin="0" end="3599" departLane="best" departSpeed="max" />
    <flow route="A5N-A5N" type="semitrailer" id="210903_11_flow_A5N-A5N_semitrailer" probability="0.00129194390784860818" begin="0" end="3599" departLane="best" departSpeed="max" />

    <flow route="A5N-A3O" type="passenger" id="210903_11_flow_A5N-A3O_passenger" probability="0.12632109894827214802" begin="0" end="3599" departLane="best" departSpeed="max" />
    <flow route="A5N-A3O" type="van" id="210903_11_flow_A5N-A3O_van" probability="0.01601541818702153716" begin="0" end="3599" departLane="best" departSpeed="max" />
    <flow route="A5N-A3O" type="motorcycle" id="210903_11_flow_A5N-A3O_motorcycle" probability="0.00241664878013879945" begin="0" end="3599" departLane="best" departSpeed="max" />
    <flow route="A5N-A3O" type="passenger_misc" id="210903_11_flow_A5N-A3O_passenger_misc" probability="0.00303105101237747740" begin="0" end="3599" departLane="best" departSpeed="max" />
    <flow route="A5N-A3O" type="passenger_trailer" id="210903_11_flow_A5N-A3O_passenger_trailer" probability="0.00135168491092509135" begin="0" end="3599" departLane="best" departSpeed="max" />
    <flow route="A5N-A3O" type="bus" id="210903_11_flow_A5N-A3O_bus" probability="0.00049152178579094227" begin="0" end="3599" departLane="best" departSpeed="max" />
    <flow route="A5N-A3O" type="truck" id="210903_11_flow_A5N-A3O_truck" probability="0.00868355154897331241" begin="0" end="3599" departLane="best" departSpeed="max" />
    <flow route="A5N-A3O" type="truck_trailer" id="210903_11_flow_A5N-A3O_truck_trailer" probability="0.00245760892895471135" begin="0" end="3599" departLane="best" departSpeed="max" />
    <flow route="A5N-A3O" type="semitrailer" id="210903_11_flow_A5N-A3O_semitrailer" probability="0.00954371467410746258" begin="0" end="3599" departLane="best" departSpeed="max" />

    <flow route="A5N-A3W" type="passenger" id="210903_11_flow_A5N-A3W_passenger" probability="0.12025327323459969464" begin="0" end="3599" departLane="best" departSpeed="max" />
    <flow route="A5N-A3W" type="van" id="210903_11_flow_A5N-A3W_van" probability="0.01524611862345281316" begin="0" end="3599" departLane="best" departSpeed="max" />
    <flow route="A5N-A3W" type="motorcycle" id="210903_11_flow_A5N-A3W_motorcycle" probability="0.00230056521428060332" begin="0" end="3599" departLane="best" departSpeed="max" />
    <flow route="A5N-A3W" type="passenger_misc" id="210903_11_flow_A5N-A3W_passenger_misc" probability="0.00288545467553838432" begin="0" end="3599" departLane="best" departSpeed="max" />
    <flow route="A5N-A3W" type="passenger_trailer" id="210903_11_flow_A5N-A3W_passenger_trailer" probability="0.00128675681476711728" begin="0" end="3599" departLane="best" departSpeed="max" />
    <flow route="A5N-A3W" type="bus" id="210903_11_flow_A5N-A3W_bus" probability="0.00046791156900622446" begin="0" end="3599" departLane="best" departSpeed="max" />
    <flow route="A5N-A3W" type="truck" id="210903_11_flow_A5N-A3W_truck" probability="0.00826643771910996576" begin="0" end="3599" departLane="best" departSpeed="max" />
    <flow route="A5N-A3W" type="truck_trailer" id="210903_11_flow_A5N-A3W_truck_trailer" probability="0.00233955784503112269" begin="0" end="3599" departLane="best" departSpeed="max" />
    <flow route="A5N-A3W" type="semitrailer" id="210903_11_flow_A5N-A3W_semitrailer" probability="0.00908528296487085864" begin="0" end="3599" departLane="best" departSpeed="max" />

    <flow route="A5N-A5S" type="passenger" id="210903_11_flow_A5N-A5S_passenger" probability="0.46887744151105392731" begin="0" end="3599" departLane="best" departSpeed="max" />
    <flow route="A5N-A5S" type="van" id="210903_11_flow_A5N-A5S_van" probability="0.05944587536667382544" begin="0" end="3599" departLane="best" departSpeed="max" />
    <flow route="A5N-A5S" type="motorcycle" id="210903_11_flow_A5N-A5S_motorcycle" probability="0.00897009372540602361" begin="0" end="3599" departLane="best" departSpeed="max" />
    <flow route="A5N-A5S" type="passenger_misc" id="210903_11_flow_A5N-A5S_passenger_misc" probability="0.01125062602847535197" begin="0" end="3599" departLane="best" departSpeed="max" />
    <flow route="A5N-A5S" type="passenger_trailer" id="210903_11_flow_A5N-A5S_passenger_trailer" probability="0.00501717106675252187" begin="0" end="3599" departLane="best" departSpeed="max" />
    <flow route="A5N-A5S" type="bus" id="210903_11_flow_A5N-A5S_bus" probability="0.00182442584245546256" begin="0" end="3599" departLane="best" departSpeed="max" />
    <flow route="A5N-A5S" type="truck" id="210903_11_flow_A5N-A5S_truck" probability="0.03223152321671317322" begin="0" end="3599" departLane="best" departSpeed="max" />
    <flow route="A5N-A5S" type="truck_trailer" id="210903_11_flow_A5N-A5S_truck_trailer" probability="0.00912212921227731344" begin="0" end="3599" departLane="best" departSpeed="max" />
    <flow route="A5N-A5S" type="semitrailer" id="210903_11_flow_A5N-A5S_semitrailer" probability="0.03542426844101023709" begin="0" end="3599" departLane="best" departSpeed="max" />

    <flow route="A5N-B43W" type="passenger" id="210903_11_flow_A5N-B43W_passenger" probability="0.12411461687057309677" begin="0" end="3599" departLane="best" departSpeed="max" />
    <flow route="A5N-B43W" type="van" id="210903_11_flow_A5N-B43W_van" probability="0.01573567289117836637" begin="0" end="3599" departLane="best" departSpeed="max" />
    <flow route="A5N-B43W" type="motorcycle" id="210903_11_flow_A5N-B43W_motorcycle" probability="0.00237443657437218280" begin="0" end="3599" departLane="best" departSpeed="max" />
    <flow route="A5N-B43W" type="passenger_misc" id="210903_11_flow_A5N-B43W_passenger_misc" probability="0.00297810688989053442" begin="0" end="3599" departLane="best" departSpeed="max" />
    <flow route="A5N-B43W" type="passenger_trailer" id="210903_11_flow_A5N-B43W_passenger_trailer" probability="0.00132807469414037370" begin="0" end="3599" departLane="best" departSpeed="max" />
    <flow route="A5N-B43W" type="bus" id="210903_11_flow_A5N-B43W_bus" probability="0.00048293625241468128" begin="0" end="3599" departLane="best" departSpeed="max" />
    <flow route="A5N-B43W" type="truck" id="210903_11_flow_A5N-B43W_truck" probability="0.00853187379265936928" begin="0" end="3599" departLane="best" departSpeed="max" />
    <flow route="A5N-B43W" type="truck_trailer" id="210903_11_flow_A5N-B43W_truck_trailer" probability="0.00241468126207340650" begin="0" end="3599" departLane="best" departSpeed="max" />
    <flow route="A5N-B43W" type="semitrailer" id="210903_11_flow_A5N-B43W_semitrailer" probability="0.00937701223438506225" begin="0" end="3599" departLane="best" departSpeed="max" />

    <flow route="A5S-A3O" type="passenger" id="210903_11_flow_A5S-A3O_passenger" probability="0.15012176560121764934" begin="0" end="3599" departLane="best" departSpeed="max" />
    <flow route="A5S-A3O" type="van" id="210903_11_flow_A5S-A3O_van" probability="0.02050989345509893202" begin="0" end="3599" departLane="best" departSpeed="max" />
    <flow route="A5S-A3O" type="motorcycle" id="210903_11_flow_A5S-A3O_motorcycle" probability="0.00133181126331811256" begin="0" end="3599" departLane="best" departSpeed="max" />
    <flow route="A5S-A3O" type="passenger_misc" id="210903_11_flow_A5S-A3O_passenger_misc" probability="0.00202435312024353128" begin="0" end="3599" departLane="best" departSpeed="max" />
    <flow route="A5S-A3O" type="passenger_trailer" id="210903_11_flow_A5S-A3O_passenger_trailer" probability="0.00159817351598173503" begin="0" end="3599" departLane="best" departSpeed="max" />
    <flow route="A5S-A3O" type="bus" id="210903_11_flow_A5S-A3O_bus" probability="0.00058599695585996960" begin="0" end="3599" departLane="best" departSpeed="max" />
    <flow route="A5S-A3O" type="truck" id="210903_11_flow_A5S-A3O_truck" probability="0.00889649923896499231" begin="0" end="3599" departLane="best" departSpeed="max" />
    <flow route="A5S-A3O" type="truck_trailer" id="210903_11_flow_A5S-A3O_truck_trailer" probability="0.00506088280060882755" begin="0" end="3599" departLane="best" departSpeed="max" />
    <flow route="A5S-A3O" type="semitrailer" id="210903_11_flow_A5S-A3O_semitrailer" probability="0.01614155251141552450" begin="0" end="3599" departLane="best" departSpeed="max" />

    <flow route="A5S-A3W" type="passenger" id="210903_11_flow_A5S-A3W_passenger" probability="0.06791222729578892670" begin="0" end="3599" departLane="best" departSpeed="max" />
    <flow route="A5S-A3W" type="van" id="210903_11_flow_A5S-A3W_van" probability="0.00927828513444951819" begin="0" end="3599" departLane="best" departSpeed="max" />
    <flow route="A5S-A3W" type="motorcycle" id="210903_11_flow_A5S-A3W_motorcycle" probability="0.00060248604769152711" begin="0" end="3599" departLane="best" departSpeed="max" />
    <flow route="A5S-A3W" type="passenger_misc" id="210903_11_flow_A5S-A3W_passenger_misc" probability="0.00091577879249112113" begin="0" end="3599" departLane="best" departSpeed="max" />
    <flow route="A5S-A3W" type="passenger_trailer" id="210903_11_flow_A5S-A3W_passenger_trailer" probability="0.00072298325722983255" begin="0" end="3599" departLane="best" departSpeed="max" />
    <flow route="A5S-A3W" type="bus" id="210903_11_flow_A5S-A3W_bus" probability="0.00026509386098427193" begin="0" end="3599" departLane="best" departSpeed="max" />