<?xml version="1.0" encoding="UTF-8"?>

<routes xmlns:xsi="http://www.w3.org/2001/XMLSchema-instance" xsi:noNamespaceSchemaLocation="http://sumo.dlr.de/xsd/routes_file.xsd">

    <!--
        truck, semitrailer and truck_trailer size calculated by using inner size from [0]
        and adding 2m length and 1m height according to [1]
        
        [0] https://www.alpensped.de/leistungen/fuhrpark/
        [1] https://www.wuerth-transporte.de/1.html
    -->
    <vType id="motorcycle" vClass="motorcycle" lcStrategic="0.75" lcCooperative="0.7" lcLookaheadLeft="0.7" lcPushy="0.2" lcAssertive="1.5" lcSigma="0.2" />
    <vType id="passenger" vClass="passenger" lcStrategic="0.75" lcCooperative="0.7" lcLookaheadLeft="0.7" lcPushy="0.2" lcAssertive="1.5" lcSigma="0.2" />
    <vType id="passenger_misc" vClass="passenger" lcStrategic="0.75" lcCooperative="0.7" lcLookaheadLeft="0.7" lcPushy="0.2" lcAssertive="1.5" lcSigma="0.2" />
    <vType id="van" vClass="passenger" guiShape="passenger/van" length="4.7" width="1.9" height="1.73" lcStrategic="0.75" lcCooperative="0.7" lcLookaheadLeft="0.7" lcPushy="0.2" lcAssertive="1.5" lcSigma="0.2" />
    <vType id="passenger_trailer" vClass="passenger" length="7.5" width="2" height="2.2" lcStrategic="0.75" lcCooperative="0.7" lcLookaheadLeft="0.7" lcPushy="0.2" lcAssertive="1.5" lcSigma="0.2" />
    <vType id="truck" vClass="truck" length="9" width="2.45" height="3.6" maxSpeed="80" lcStrategic="0.75" lcCooperative="0.7" lcLookaheadLeft="0.7" lcPushy="0.2" lcAssertive="1.5" lcSigma="0.2" lcKeepRight="100" lcSpeedGain="0.1" />
    <vType id="semitrailer" vClass="truck" guiShape="truck/semitrailer" length="15.6" width="2.5" height="4.04" maxSpeed="80" lcStrategic="0.75" lcCooperative="0.7" lcLookaheadLeft="0.7" lcPushy="0.2" lcAssertive="1.5" lcSigma="0.2" lcKeepRight="100" lcSpeedGain="0.1" />
    <vType id="truck_trailer" vClass="truck" guiShape="truck/trailer" length="17.6" width="2.5" height="4.20" maxSpeed="80" lcStrategic="0.75" lcCooperative="0.7" lcLookaheadLeft="0.7" lcPushy="0.2" lcAssertive="1.5" lcSigma="0.2" lcKeepRight="100" lcSpeedGain="0.1" />
    <vType id="bus" vClass="bus" lcStrategic="0.75" lcCooperative="0.7" lcLookaheadLeft="0.7" lcPushy="0.2" lcAssertive="1.5" lcSigma="0.2" lcKeepRight="100" lcSpeedGain="0.1" />

    <route edges="3993621 3993622" color="yellow" id="A3O-A3W" />
    <route edges="3993621 4488572 387746873 153320423 132979567 23286294 4488573 419865347 4488587 234004932 4488588 39175423" color="yellow" id="A3O-A3W-alt" />
    <route edges="3993621 4488572 387746873 153320423 132979567 20437071 4780826 132979549 23286356 23286447 A5N1" color="yellow" id="A3O-A5N" />
    <route edges="3993621 4488572 387746873 153320423 132979567 23286294 4488573 4488575 4488577 23286237 481371695 236522916 A5S2" color="yellow" id="A3O-A5S" />
    <route edges="133039111 4728785 37976720 152367113 307216717 3993482 153261740 153261739 3993501" color="yellow" id="A3W-A3O" />
    <route edges="133039111 20644480 108035020 228932147 4728850 387746860 20630373 4893840 234004960 387746834 4488560#0 4488560#1 387746832 4488561 26529486 387746829#1 132979552 A5N1" color="yellow" id="A3W-A5N" />
    <route edges="133039111 20644480 108035020 228932147 4728850 387746860 4488582 228932146 481371695 236522916 A5S2" color="yellow" id="A3W-A5S" />
    <route edges="133039111 20644480 108035020 228932147 4728850 387746860 20630373 4893840 234004960 387746834 4488560#0 4488560#1 387746832 4488561 26529486 387746829#1 4488569#0 4488569#1 4743817 419865353 152377568 152377560 152377574#1 234004943 38238212" color="yellow" id="A3W-B43W" />
    <route edges="A5N2 358653882-AddedOffRampEdge 321554750 387746861 75436542 23286376 4488583 4488577 20630094 4893840 234004960 387746834 4488560#0 4488560#1 387746832 4488561 26529486 387746829#1 132979552 A5N1" color="yellow" id="A5N-A5N" />
    <route edges="A5N2 358653882-AddedOffRampEdge 321554750 387746861 75436542 23286376 4488583 4488577 20630094 4893840 234004960 387746818 23286266 4488571 307213473 307216717 3993482 153261740 153261739 3993501" color="yellow" id="A5N-A3O" />
    <route edges="A5N2 358653882-AddedOffRampEdge 321554750 387746861 75436542 23286376 4488585#0 4488585#1 4488588 39175423" color="yellow" id="A5N-A3W" />
    <route edges="A5N2 358653882-AddedOffRampEdge 23286357 23286423 23286426 A5S2" color="yellow" id="A5N-A5S" />
    <route edges="A5N2 358653882-AddedOffRampEdge 321554750 4488594 419865353 152377568 152377560 152377574#1 234004943 38238212" color="yellow" id="A5N-B43W" />
    <route edges="A5S1 4488554 39175135 387746811 156265645 23286275 4488571 307213473 307216717 3993482 153261740 153261739 3993501" color="yellow" id="A5S-A3O" />
    <route edges="A5S1 4488554 20629597 387746862 132979565 4488561 387746825 4488563 4488573 419865347 4488587 234004932 4488588 39175423" color="yellow" id="A5S-A3W" />
    <route edges="A5S1 23286478 23286356 23286447 A5N1" color="yellow" id="A5S-A5N" />
    <route edges="A5S1 4488554 20629597 387746862 132979565 4488561 26529486 387746829#1 132979552 A5N1" color="yellow" id="A5S-A5N-alt" />
    <route edges="A5S1 4488554 20629597 387746862 132979565 4488561 26529486 387746829#1 4488569#0 4488569#1 4743817 419865353 152377568 152377560 152377574#1 234004943 38238212" color="yellow" id="A5S-B43W" />
    <route edges="23337333 4746513 23337441 4743817 419865353 152377568 152377560 152377574#1 234004943 38238212" color="yellow" id="B43O-B43W" />
    <route edges="89837133 152303549 433450247 45781803 152377567 152377561 152446429 49203928 387746833 4780826 132979549 23286356 23286447 A5N1" color="yellow" id="B43W-A5N" />
    <route edges="89837133 152303549 433450247 45781803 152377567 152377561 152446429 4488584#0 4488584#1 23286423 23286426 A5S2" color="yellow" id="B43W-A5S" />
    <route edges="89837133 152303549 433450247 45781803 152377567 152377561 152446429 49203928 4743818 23337443 4746512" color="yellow" id="B43W-B43O" />

    <!--
        Flows generated by bast2scenario-tool.
        Reference file: "../../frankfurter-kreuz-ref.rou.xml"
        Date: 210903
        Hour: 15
    -->

    <flow route="A3O-A3W" type="passenger" id="210903_15_flow_A3O-A3W_passenger" probability="0.5444086456647159" begin="0" end="3599" departLane="best" departSpeed="max" />
    <flow route="A3O-A3W" type="van" id="210903_15_flow_A3O-A3W_van" probability="0.07377142738554766" begin="0" end="3599" departLane="best" departSpeed="max" />
    <flow route="A3O-A3W" type="motorcycle" id="210903_15_flow_A3O-A3W_motorcycle" probability="0.0099484290042751" begin="0" end="3599" departLane="best" departSpeed="max" />
    <flow route="A3O-A3W" type="passenger_misc" id="210903_15_flow_A3O-A3W_passenger_misc" probability="0.011478956543394347" begin="0" end="3599" departLane="best" departSpeed="max" />
    <flow route="A3O-A3W" type="passenger_trailer" id="210903_15_flow_A3O-A3W_passenger_trailer" probability="0.00765263769559623" begin="0" end="3599" departLane="best" departSpeed="max" />
    <flow route="A3O-A3W" type="bus" id="210903_15_flow_A3O-A3W_bus" probability="0.0013774747852073217" begin="0" end="3599" departLane="best" departSpeed="max" />
    <flow route="A3O-A3W" type="truck" id="210903_15_flow_A3O-A3W_truck" probability="0.031681920059768394" begin="0" end="3599" departLane="best" departSpeed="max" />
    <flow route="A3O-A3W" type="truck_trailer" id="210903_15_flow_A3O-A3W_truck_trailer" probability="0.009795376250363176" begin="0" end="3599" departLane="best" departSpeed="max" />
    <flow route="A3O-A3W" type="semitrailer" id="210903_15_flow_A3O-A3W_semitrailer" probability="0.03948761050927656" begin="0" end="3599" departLane="best" departSpeed="max" />

    <flow route="A3O-A3W-alt" type="passenger" id="210903_15_flow_A3O-A3W-alt_passenger" probability="0.08747447391358487" begin="0" end="3599" departLane="best" departSpeed="max" />
    <flow route="A3O-A3W-alt" type="van" id="210903_15_flow_A3O-A3W-alt_van" probability="0.011853442908728678" begin="0" end="3599" departLane="best" departSpeed="max" />
    <flow route="A3O-A3W-alt" type="motorcycle" id="210903_15_flow_A3O-A3W-alt_motorcycle" probability="0.0015984933383140331" begin="0" end="3599" departLane="best" departSpeed="max" />
    <flow route="A3O-A3W-alt" type="passenger_misc" id="210903_15_flow_A3O-A3W-alt_passenger_misc" probability="0.001844415390362346" begin="0" end="3599" departLane="best" departSpeed="max" />
    <flow route="A3O-A3W-alt" type="passenger_trailer" id="210903_15_flow_A3O-A3W-alt_passenger_trailer" probability="0.001229610260241564" begin="0" end="3599" departLane="best" departSpeed="max" />
    <flow route="A3O-A3W-alt" type="bus" id="210903_15_flow_A3O-A3W-alt_bus" probability="0.00022132984684348152" begin="0" end="3599" departLane="best" departSpeed="max" />
    <flow route="A3O-A3W-alt" type="truck" id="210903_15_flow_A3O-A3W-alt_truck" probability="0.005090586477400075" begin="0" end="3599" departLane="best" departSpeed="max" />
    <flow route="A3O-A3W-alt" type="truck_trailer" id="210903_15_flow_A3O-A3W-alt_truck_trailer" probability="0.001573901133109202" begin="0" end="3599" departLane="best" departSpeed="max" />
    <flow route="A3O-A3W-alt" type="semitrailer" id="210903_15_flow_A3O-A3W-alt_semitrailer" probability="0.006344788942846471" begin="0" end="3599" departLane="best" departSpeed="max" />

    <flow route="A3O-A5N" type="passenger" id="210903_15_flow_A3O-A5N_passenger" probability="0.23584889802017184" begin="0" end="3599" departLane="best" departSpeed="max" />
    <flow route="A3O-A5N" type="van" id="210903_15_flow_A3O-A5N_van" probability="0.031959282779230484" begin="0" end="3599" departLane="best" departSpeed="max" />
    <flow route="A3O-A5N" type="motorcycle" id="210903_15_flow_A3O-A5N_motorcycle" probability="0.0043098617855808746" begin="0" end="3599" departLane="best" departSpeed="max" />
    <flow route="A3O-A5N" type="passenger_misc" id="210903_15_flow_A3O-A5N_passenger_misc" probability="0.004972917444901009" begin="0" end="3599" departLane="best" departSpeed="max" />
    <flow route="A3O-A5N" type="passenger_trailer" id="210903_15_flow_A3O-A5N_passenger_trailer" probability="0.0033152782966006725" begin="0" end="3599" departLane="best" departSpeed="max" />
    <flow route="A3O-A5N" type="bus" id="210903_15_flow_A3O-A5N_bus" probability="0.0005967500933881211" begin="0" end="3599" departLane="best" departSpeed="max" />
    <flow route="A3O-A5N" type="truck" id="210903_15_flow_A3O-A5N_truck" probability="0.013725252147926784" begin="0" end="3599" departLane="best" departSpeed="max" />
    <flow route="A3O-A5N" type="truck_trailer" id="210903_15_flow_A3O-A5N_truck_trailer" probability="0.004243556219648861" begin="0" end="3599" departLane="best" departSpeed="max" />
    <flow route="A3O-A5N" type="semitrailer" id="210903_15_flow_A3O-A5N_semitrailer" probability="0.01710683601045947" begin="0" end="3599" departLane="best" departSpeed="max" />

    <flow route="A3O-A5S" type="passenger" id="210903_15_flow_A3O-A5S_passenger" probability="0.12032353795708298" begin="0" end="3599" departLane="best" departSpeed="max" />
    <flow route="A3O-A5S" type="van" id="210903_15_flow_A3O-A5S_van" probability="0.01630473581538206" begin="0" end="3599" departLane="best" departSpeed="max" />
    <flow route="A3O-A5S" type="motorcycle" id="210903_15_flow_A3O-A5S_motorcycle" probability="0.002198771427385548" begin="0" end="3599" departLane="best" departSpeed="max" />
    <flow route="A3O-A5S" type="passenger_misc" id="210903_15_flow_A3O-A5S_passenger_misc" probability="0.002537043954675632" begin="0" end="3599" departLane="best" departSpeed="max" />
    <flow route="A3O-A5S" type="passenger_trailer" id="210903_15_flow_A3O-A5S_passenger_trailer" probability="0.0016913626364504215" begin="0" end="3599" departLane="best" departSpeed="max" />
    <flow route="A3O-A5S" type="bus" id="210903_15_flow_A3O-A5S_bus" probability="0.00030444527456107584" begin="0" end="3599" departLane="best" departSpeed="max" />
    <flow route="A3O-A5S" type="truck" id="210903_15_flow_A3O-A5S_truck" probability="0.007002241314904744" begin="0" end="3599" departLane="best" departSpeed="max" />
    <flow route="A3O-A5S" type="truck_trailer" id="210903_15_flow_A3O-A5S_truck_trailer" probability="0.0021649441746565395" begin="0" end="3599" departLane="best" departSpeed="max" />
    <flow route="A3O-A5S" type="semitrailer" id="210903_15_flow_A3O-A5S_semitrailer" probability="0.008727431204084174" begin="0" end="3599" departLane="best" departSpeed="max" />

    <flow route="A3W-A3O" type="passenger" id="210903_15_flow_A3W-A3O_passenger" probability="0.7157139678725583" begin="0" end="3599" departLane="best" departSpeed="max" />
    <flow route="A3W-A3O" type="van" id="210903_15_flow_A3W-A3O_van" probability="0.08265563120188671" begin="0" end="3599" departLane="best" departSpeed="max" />
    <flow route="A3W-A3O" type="motorcycle" id="210903_15_flow_A3W-A3O_motorcycle" probability="0.009903439683175367" begin="0" end="3599" departLane="best" departSpeed="max" />
    <flow route="A3W-A3O" type="passenger_misc" id="210903_15_flow_A3W-A3O_passenger_misc" probability="0.02152093623459262" begin="0" end="3599" departLane="best" departSpeed="max" />
    <flow route="A3W-A3O" type="passenger_trailer" id="210903_15_flow_A3W-A3O_passenger_trailer" probability="0.012569750367107195" begin="0" end="3599" departLane="best" departSpeed="max" />
    <flow route="A3W-A3O" type="bus" id="210903_15_flow_A3W-A3O_bus" probability="0.002666310683931829" begin="0" end="3599" departLane="best" departSpeed="max" />
    <flow route="A3W-A3O" type="truck" id="210903_15_flow_A3W-A3O_truck" probability="0.03523339118052774" begin="0" end="3599" departLane="best" departSpeed="max" />
    <flow route="A3W-A3O" type="truck_trailer" id="210903_15_flow_A3W-A3O_truck_trailer" probability="0.015045610287901037" begin="0" end="3599" departLane="best" departSpeed="max" />
    <flow route="A3W-A3O" type="semitrailer" id="210903_15_flow_A3W-A3O_semitrailer" probability="0.050659902994704756" begin="0" end="3599" departLane="best" departSpeed="max" />

    <flow route="A3W-A5N" type="passenger" id="210903_15_flow_A3W-A5N_passenger" probability="0.14757420015129263" begin="0" end="3599" departLane="best" departSpeed="max" />
    <flow route="A3W-A5N" type="van" id="210903_15_flow_A3W-A5N_van" probability="0.017042895919547902" begin="0" end="3599" departLane="best" departSpeed="max" />
    <flow route="A3W-A5N" type="motorcycle" id="210903_15_flow_A3W-A5N_motorcycle" probability="0.0020420059627108086" begin="0" end="3599" departLane="best" departSpeed="max" />
    <flow route="A3W-A5N" type="passenger_misc" id="210903_15_flow_A3W-A5N_passenger_misc" probability="0.004437436034352334" begin="0" end="3599" departLane="best" departSpeed="max" />
    <flow route="A3W-A5N" type="passenger_trailer" id="210903_15_flow_A3W-A5N_passenger_trailer" probability="0.002591776798825257" begin="0" end="3599" departLane="best" departSpeed="max" />
    <flow route="A3W-A5N" type="bus" id="210903_15_flow_A3W-A5N_bus" probability="0.0005497708361144484" begin="0" end="3599" departLane="best" departSpeed="max" />
    <flow route="A3W-A5N" type="truck" id="210903_15_flow_A3W-A5N_truck" probability="0.007264828905798068" begin="0" end="3599" departLane="best" departSpeed="max" />
    <flow route="A3W-A5N" type="truck_trailer" id="210903_15_flow_A3W-A5N_truck_trailer" probability="0.0031022782895029585" begin="0" end="3599" departLane="best" departSpeed="max" />
    <flow route="A3W-A5N" type="semitrailer" id="210903_15_flow_A3W-A5N_semitrailer" probability="0.01044564588617452" begin="0" end="3599" departLane="best" departSpeed="max" />

    <flow route="A3W-A5S" type="passenger" id="210903_15_flow_A3W-A5S_passenger" probability="0.17892849196813956" begin="0" end="3599" departLane="best" departSpeed="max" />
    <flow route="A3W-A5S" type="van" id="210903_15_flow_A3W-A5S_van" probability="0.020663907800471677" begin="0" end="3599" departLane="best" departSpeed="max" />
    <flow route="A3W-A5S" type="motorcycle" id="210903_15_flow_A3W-A5S_motorcycle" probability="0.0024758599207938417" begin="0" end="3599" departLane="best" departSpeed="max" />
    <flow route="A3W-A5S" type="passenger_misc" id="210903_15_flow_A3W-A5S_passenger_misc" probability="0.005380234058648155" begin="0" end="3599" departLane="best" departSpeed="max" />
    <flow route="A3W-A5S" type="passenger_trailer" id="210903_15_flow_A3W-A5S_passenger_trailer" probability="0.0031424375917767987" begin="0" end="3599" departLane="best" departSpeed="max" />
    <flow route="A3W-A5S" type="bus" id="210903_15_flow_A3W-A5S_bus" probability="0.0006665776709829573" begin="0" end="3599" departLane="best" departSpeed="max" />
    <flow route="A3W-A5S" type="truck" id="210903_15_flow_A3W-A5S_truck" probability="0.008808347795131935" begin="0" end="3599" departLane="best" departSpeed="max" />
    <flow route="A3W-A5S" type="truck_trailer" id="210903_15_flow_A3W-A5S_truck_trailer" probability="0.0037614025719752593" begin="0" end="3599" departLane="best" departSpeed="max" />
    <flow route="A3W-A5S" type="semitrailer" id="210903_15_flow_A3W-A5S_semitrailer" probability="0.012664975748676189" begin="0" end="3599" departLane="best" departSpeed="max" />

    <flow route="A3W-B43W" type="passenger" id="210903_15_flow_A3W-B43W_passenger" probability="0.0016722288968985006" begin="0" end="3599" departLane="best" departSpeed="max" />
    <flow route="A3W-B43W" type="van" id="210903_15_flow_A3W-B43W_van" probability="0.000193120633649268" begin="0" end="3599" departLane="best" departSpeed="max" />
    <flow route="A3W-B43W" type="motorcycle" id="210903_15_flow_A3W-B43W_motorcycle" probability="2.3138877764428427e-05" begin="0" end="3599" departLane="best" departSpeed="max" />
    <flow route="A3W-B43W" type="passenger_misc" id="210903_15_flow_A3W-B43W_passenger_misc" probability="5.0282561295777155e-05" begin="0" end="3599" departLane="best" departSpeed="max" />
    <flow route="A3W-B43W" type="passenger_trailer" id="210903_15_flow_A3W-B43W_passenger_trailer" probability="2.9368575624082234e-05" begin="0" end="3599" departLane="best" departSpeed="max" />
    <flow route="A3W-B43W" type="bus" id="210903_15_flow_A3W-B43W_bus" probability="6.229697859653807e-06" begin="0" end="3599" departLane="best" departSpeed="max" />
    <flow route="A3W-B43W" type="truck" id="210903_15_flow_A3W-B43W_truck" probability="8.232100743113959e-05" begin="0" end="3599" departLane="best" departSpeed="max" />
    <flow route="A3W-B43W" type="truck_trailer" id="210903_15_flow_A3W-B43W_truck_trailer" probability="3.515329506518934e-05" begin="0" end="3599" departLane="best" departSpeed="max" />
    <flow route="A3W-B43W" type="semitrailer" id="210903_15_flow_A3W-B43W_semitrailer" probability="0.00011836425933342232" begin="0" end="3599" departLane="best" departSpeed="max" />

    <flow route="A5N-A5N" type="passenger" id="210903_15_flow_A5N-A5N_passenger" probability="0.02519567861486728" begin="0" end="3599" departLane="best" departSpeed="max" />
    <flow route="A5N-A5N" type="van" id="210903_15_flow_A5N-A5N_van" probability="0.002689239464835086" begin="0" end="3599" departLane="best" departSpeed="max" />
    <flow route="A5N-A5N" type="motorcycle" id="210903_15_flow_A5N-A5N_motorcycle" probability="0.00039922730199613653" begin="0" end="3599" departLane="best" departSpeed="max" />
    <flow route="A5N-A5N" type="passenger_misc" id="210903_15_flow_A5N-A5N_passenger_misc" probability="0.0005711168348000287" begin="0" end="3599" departLane="best" departSpeed="max" />
    <flow route="A5N-A5N" type="passenger_trailer" id="210903_15_flow_A5N-A5N_passenger_trailer" probability="0.00032159977105244324" begin="0" end="3599" departLane="best" departSpeed="max" />
    <flow route="A5N-A5N" type="bus" id="210903_15_flow_A5N-A5N_bus" probability="1.6634470916505688e-05" begin="0" end="3599" departLane="best" departSpeed="max" />
    <flow route="A5N-A5N" type="truck" id="210903_15_flow_A5N-A5N_truck" probability="0.0011255991986835515" begin="0" end="3599" departLane="best" departSpeed="max" />
    <flow route="A5N-A5N" type="truck_trailer" id="210903_15_flow_A5N-A5N_truck_trailer" probability="0.0002716963583029262" begin="0" end="3599" departLane="best" departSpeed="max" />
    <flow route="A5N-A5N" type="semitrailer" id="210903_15_flow_A5N-A5N_semitrailer" probability="0.0009426200186019889" begin="0" end="3599" departLane="best" departSpeed="max" />

    <flow route="A5N-A3O" type="passenger" id="210903_15_flow_A5N-A3O_passenger" probability="0.18612291621950347" begin="0" end="3599" departLane="best" departSpeed="max" />
    <flow route="A5N-A3O" type="van" id="210903_15_flow_A5N-A3O_van" probability="0.01986567217571725" begin="0" end="3599" departLane="best" departSpeed="max" />
    <flow route="A5N-A3O" type="motorcycle" id="210903_15_flow_A5N-A3O_motorcycle" probability="0.002949130714745653" begin="0" end="3599" departLane="best" departSpeed="max" />
    <flow route="A5N-A3O" type="passenger_misc" id="210903_15_flow_A5N-A3O_passenger_misc" probability="0.004218895328038921" begin="0" end="3599" departLane="best" departSpeed="max" />
    <flow route="A5N-A3O" type="passenger_trailer" id="210903_15_flow_A5N-A3O_passenger_trailer" probability="0.0023756886313228876" begin="0" end="3599" departLane="best" departSpeed="max" />
    <flow route="A5N-A3O" type="bus" id="210903_15_flow_A5N-A3O_bus" probability="0.00012288044644773557" begin="0" end="3599" departLane="best" departSpeed="max" />
    <flow route="A5N-A3O" type="truck" id="210903_15_flow_A5N-A3O_truck" probability="0.008314910209630107" begin="0" end="3599" departLane="best" departSpeed="max" />
    <flow route="A5N-A3O" type="truck_trailer" id="210903_15_flow_A5N-A3O_truck_trailer" probability="0.002007047291979681" begin="0" end="3599" departLane="best" departSpeed="max" />
    <flow route="A5N-A3O" type="semitrailer" id="210903_15_flow_A5N-A3O_semitrailer" probability="0.0069632252987050156" begin="0" end="3599" departLane="best" departSpeed="max" />

    <flow route="A5N-A3W" type="passenger" id="210903_15_flow_A5N-A3W_passenger" probability="0.17718251413035702" begin="0" end="3599" departLane="best" departSpeed="max" />
    <flow route="A5N-A3W" type="van" id="210903_15_flow_A5N-A3W_van" probability="0.01891142591400157" begin="0" end="3599" departLane="best" departSpeed="max" />
    <flow route="A5N-A3W" type="motorcycle" id="210903_15_flow_A5N-A3W_motorcycle" probability="0.002807469414037347" begin="0" end="3599" departLane="best" departSpeed="max" />
    <flow route="A5N-A3W" type="passenger_misc" id="210903_15_flow_A5N-A3W_passenger_misc" probability="0.0040162409673034265" begin="0" end="3599" departLane="best" departSpeed="max" />
    <flow route="A5N-A3W" type="passenger_trailer" id="210903_15_flow_A5N-A3W_passenger_trailer" probability="0.002261572583530085" begin="0" end="3599" departLane="best" departSpeed="max" />
    <flow route="A5N-A3W" type="bus" id="210903_15_flow_A5N-A3W_bus" probability="0.00011697789225155612" begin="0" end="3599" departLane="best" departSpeed="max" />
    <flow route="A5N-A3W" type="truck" id="210903_15_flow_A5N-A3W_truck" probability="0.007915504042355298" begin="0" end="3599" departLane="best" departSpeed="max" />
    <flow route="A5N-A3W" type="truck_trailer" id="210903_15_flow_A5N-A3W_truck_trailer" probability="0.0019106389067754166" begin="0" end="3599" departLane="best" departSpeed="max" />
    <flow route="A5N-A3W" type="semitrailer" id="210903_15_flow_A5N-A3W_semitrailer" probability="0.00662874722758818" begin="0" end="3599" departLane="best" departSpeed="max" />

    <flow route="A5N-A5S" type="passenger" id="210903_15_flow_A5N-A5S_passenger" probability="0.6908492523431352" begin="0" end="3599" departLane="best" departSpeed="max" />
    <flow route="A5N-A5S" type="van" id="210903_15_flow_A5N-A5S_van" probability="0.07373721113257495" begin="0" end="3599" departLane="best" departSpeed="max" />
    <flow route="A5N-A5S" type="motorcycle" id="210903_15_flow_A5N-A5S_motorcycle" probability="0.010946555054732776" begin="0" end="3599" departLane="best" departSpeed="max" />
    <flow route="A5N-A5S" type="passenger_misc" id="210903_15_flow_A5N-A5S_passenger_misc" probability="0.015659655147742722" begin="0" end="3599" departLane="best" departSpeed="max" />
    <flow route="A5N-A5S" type="passenger_trailer" id="210903_15_flow_A5N-A5S_passenger_trailer" probability="0.008818058238534736" begin="0" end="3599" departLane="best" departSpeed="max" />
    <flow route="A5N-A5S" type="bus" id="210903_15_flow_A5N-A5S_bus" probability="0.00045610646061386564" begin="0" end="3599" departLane="best" departSpeed="max" />
    <flow route="A5N-A5S" type="truck" id="210903_15_flow_A5N-A5S_truck" probability="0.03086320383487158" begin="0" end="3599" departLane="best" departSpeed="max" />
    <flow route="A5N-A5S" type="truck_trailer" id="210903_15_flow_A5N-A5S_truck_trailer" probability="0.00744973885669314" begin="0" end="3599" departLane="best" departSpeed="max" />
    <flow route="A5N-A5S" type="semitrailer" id="210903_15_flow_A5N-A5S_semitrailer" probability="0.025846032768119052" begin="0" end="3599" departLane="best" departSpeed="max" />

    <flow route="A5N-B43W" type="passenger" id="210903_15_flow_A5N-B43W_passenger" probability="0.1828718609143593" begin="0" end="3599" departLane="best" departSpeed="max" />
    <flow route="A5N-B43W" type="van" id="210903_15_flow_A5N-B43W_van" probability="0.01951867353509337" begin="0" end="3599" departLane="best" departSpeed="max" />
    <flow route="A5N-B43W" type="motorcycle" id="210903_15_flow_A5N-B43W_motorcycle" probability="0.002897617514488088" begin="0" end="3599" departLane="best" departSpeed="max" />
    <flow route="A5N-B43W" type="passenger_misc" id="210903_15_flow_A5N-B43W_passenger_misc" probability="0.004145202833226014" begin="0" end="3599" departLane="best" departSpeed="max" />
    <flow route="A5N-B43W" type="passenger_trailer" id="210903_15_flow_A5N-B43W_passenger_trailer" probability="0.0023341918866709595" begin="0" end="3599" departLane="best" departSpeed="max" />
    <flow route="A5N-B43W" type="bus" id="210903_15_flow_A5N-B43W_bus" probability="0.00012073406310367032" begin="0" end="3599" departLane="best" departSpeed="max" />
    <flow route="A5N-B43W" type="truck" id="210903_15_flow_A5N-B43W_truck" probability="0.008169671603348359" begin="0" end="3599" departLane="best" departSpeed="max" />
    <flow route="A5N-B43W" type="truck_trailer" id="210903_15_flow_A5N-B43W_truck_trailer" probability="0.001971989697359949" begin="0" end="3599" departLane="best" departSpeed="max" />
    <flow route="A5N-B43W" type="semitrailer" id="210903_15_flow_A5N-B43W_semitrailer" probability="0.006841596909207985" begin="0" end="3599" departLane="best" departSpeed="max" />

    <flow route="A5S-A3O" type="passenger" id="210903_15_flow_A5S-A3O_passenger" probability="0.19748097412480972" begin="0" end="3599" departLane="best" departSpeed="max" />
    <flow route="A5S-A3O" type="van" id="210903_15_flow_A5S-A3O_van" probability="0.020350076103500758" begin="0" end="3599" departLane="best" departSpeed="max" />
    <flow route="A5S-A3O" type="motorcycle" id="210903_15_flow_A5S-A3O_motorcycle" probability="0.0017579908675799086" begin="0" end="3599" departLane="best" departSpeed="max" />
    <flow route="A5S-A3O" type="passenger_misc" id="210903_15_flow_A5S-A3O_passenger_misc" probability="0.001971080669710807" begin="0" end="3599" departLane="best" departSpeed="max" />
    <flow route="A5S-A3O" type="passenger_trailer" id="210903_15_flow_A5S-A3O_passenger_trailer" probability="0.002663622526636225" begin="0" end="3599" departLane="best" departSpeed="max" />
    <flow route="A5S-A3O" type="bus" id="210903_15_flow_A5S-A3O_bus" probability="0.0006392694063926941" begin="0" end="3599" departLane="best" departSpeed="max" />
    <flow route="A5S-A3O" type="truck" id="210903_15_flow_A5S-A3O_truck" probability="0.007937595129375951" begin="0" end="3599" departLane="best" departSpeed="max" />
    <flow route="A5S-A3O" type="truck_trailer" id="210903_15_flow_A5S-A3O_truck_trailer" probability="0.0031430745814307456" begin="0" end="3599" departLane="best" departSpeed="max" />
    <flow route="A5S-A3O" type="semitrailer" id="210903_15_flow_A5S-A3O_semitrailer" probability="0.01880517503805175" begin="0" end="3599" departLane="best" departSpeed="max" />

    <flow route="A5S-A3W" type="passenger" id="210903_15_flow_A5S-A3W_passenger" probability="0.08933663115169964" begin="0" end="3599" departLane="best" departSpeed="max" />
    <flow route="A5S-A3W" type="van" id="210903_15_flow_A5S-A3W_van" probability="0.009205986808726535" begin="0" end="3599" departLane="best" departSpeed="max" />
    <flow route="A5S-A3W" type="motorcycle" id="210903_15_flow_A5S-A3W_motorcycle" probability="0.0007952815829528158" begin="0" end="3599" departLane="best" departSpeed="max" />
    <flow route="A5S-A3W" type="passenger_misc" id="210903_15_flow_A5S-A3W_passenger_misc" probability="0.0008916793505834601" begin="0" end="3599" departLane="best" departSpeed="max" />
    <flow route="A5S-A3W" type="passenger_trailer" id="210903_15_flow_A5S-A3W_passenger_trailer" probability="0.0012049720953830542" begin="0" end="3599" departLane="best" departSpeed="max" />
    <flow route="A5S-A3W" type="bus" id="210903_15_flow_A5S-A3W_bus" probability="0.00028919330289193303" begin="0" end="3599" departLane="best" departSpeed="max" />
    <flow route="A5S-A3W" type="truck" id="210903_15_flow_A5S-A3W_truck" probability="0.0035908168442415015" begin="0" end="3599" departLane="best" departSpeed="max" />
    <flow route="A5S-A3W" type="truck_trailer" id="210903_15_flow_A5S-A3W_truck_trailer" probability="0.001421867072552004" begin="0" end="3599" departLane="best" departSpeed="max" />