<?xml version="1.0" encoding="UTF-8"?>

<routes xmlns:xsi="http://www.w3.org/2001/XMLSchema-instance" xsi:noNamespaceSchemaLocation="http://sumo.dlr.de/xsd/routes_file.xsd">

    <!--
        truck, semitrailer and truck_trailer size calculated by using inner size from [0]
        and adding 2m length and 1m height according to [1]

        [0] https://www.alpensped.de/leistungen/fuhrpark/
        [1] https://www.wuerth-transporte.de/1.html
    -->
    <vType id="motorcycle" vClass="motorcycle" lcStrategic="0.75" lcCooperative="0.7" lcLookaheadLeft="0.7" lcPushy="0.2" lcAssertive="1.5" lcSigma="0.2" />
    <vType id="passenger" vClass="passenger" lcStrategic="0.75" lcCooperative="0.7" lcLookaheadLeft="0.7" lcPushy="0.2" lcAssertive="1.5" lcSigma="0.2" />
    <vType id="passenger_misc" vClass="passenger" lcStrategic="0.75" lcCooperative="0.7" lcLookaheadLeft="0.7" lcPushy="0.2" lcAssertive="1.5" lcSigma="0.2" />
    <vType id="van" vClass="passenger" guiShape="passenger/van" length="4.7" width="1.9" height="1.73" lcStrategic="0.75" lcCooperative="0.7" lcLookaheadLeft="0.7" lcPushy="0.2" lcAssertive="1.5" lcSigma="0.2" />
    <vType id="passenger_trailer" vClass="passenger" length="7.5" width="2" height="2.2" lcStrategic="0.75" lcCooperative="0.7" lcLookaheadLeft="0.7" lcPushy="0.2" lcAssertive="1.5" lcSigma="0.2" />
    <vType id="truck" vClass="truck" length="9" width="2.45" height="3.6" maxSpeed="22.22" lcStrategic="0.75" lcCooperative="0.7" lcLookaheadLeft="0.7" lcPushy="0.2" lcAssertive="1.5" lcSigma="0.2" lcKeepRight="100" lcSpeedGain="0.1" />
    <vType id="semitrailer" vClass="truck" guiShape="truck/semitrailer" length="15.6" width="2.5" height="4.04" maxSpeed="22.22" lcStrategic="0.75" lcCooperative="0.7" lcLookaheadLeft="0.7" lcPushy="0.2" lcAssertive="1.5" lcSigma="0.2" lcKeepRight="100" lcSpeedGain="0.1" />
    <vType id="truck_trailer" vClass="truck" guiShape="truck/trailer" length="17.6" width="2.5" height="4.20" maxSpeed="22.22" lcStrategic="0.75" lcCooperative="0.7" lcLookaheadLeft="0.7" lcPushy="0.2" lcAssertive="1.5" lcSigma="0.2" lcKeepRight="100" lcSpeedGain="0.1" />
    <vType id="bus" vClass="bus" maxSpeed="22.22" lcStrategic="0.75" lcCooperative="0.7" lcLookaheadLeft="0.7" lcPushy="0.2" lcAssertive="1.5" lcSigma="0.2" lcKeepRight="100" lcSpeedGain="0.1" />

    <route edges="3993621 3993622" color="yellow" id="A3O-A3W" />
    <route edges="3993621 4488572 387746873 153320423 132979567 23286294 4488573 419865347 4488587 234004932 4488588 39175423" color="yellow" id="A3O-A3W-alt" />
    <route edges="3993621 4488572 387746873 153320423 132979567 20437071 4780826 132979549 23286356 23286447 A5N1" color="yellow" id="A3O-A5N" />
    <route edges="3993621 4488572 387746873 153320423 132979567 23286294 4488573 4488575 4488577 23286237 481371695 236522916 A5S2" color="yellow" id="A3O-A5S" />
    <route edges="133039111 4728785 37976720 152367113 307216717 3993482 153261740 153261739 3993501" color="yellow" id="A3W-A3O" />
    <route edges="133039111 20644480 108035020 228932147 4728850 387746860 20630373 4893840 234004960 387746834 4488560#0 4488560#1 387746832 4488561 26529486 387746829#1 132979552 A5N1" color="yellow" id="A3W-A5N" />
    <route edges="133039111 20644480 108035020 228932147 4728850 387746860 4488582 228932146 481371695 236522916 A5S2" color="yellow" id="A3W-A5S" />
    <route edges="133039111 20644480 108035020 228932147 4728850 387746860 20630373 4893840 234004960 387746834 4488560#0 4488560#1 387746832 4488561 26529486 387746829#1 4488569#0 4488569#1 4743817 419865353 152377568 152377560 152377574#1 234004943 38238212" color="yellow" id="A3W-B43W" />
    <route edges="A5N2 358653882-AddedOffRampEdge 321554750 387746861 75436542 23286376 4488583 4488577 20630094 4893840 234004960 387746834 4488560#0 4488560#1 387746832 4488561 26529486 387746829#1 132979552 A5N1" color="yellow" id="A5N-A5N" />
    <route edges="A5N2 358653882-AddedOffRampEdge 321554750 387746861 75436542 23286376 4488583 4488577 20630094 4893840 234004960 387746818 23286266 4488571 307213473 307216717 3993482 153261740 153261739 3993501" color="yellow" id="A5N-A3O" />
    <route edges="A5N2 358653882-AddedOffRampEdge 321554750 387746861 75436542 23286376 4488585#0 4488585#1 4488588 39175423" color="yellow" id="A5N-A3W" />
    <route edges="A5N2 358653882-AddedOffRampEdge 23286357 23286423 23286426 A5S2" color="yellow" id="A5N-A5S" />
    <route edges="A5N2 358653882-AddedOffRampEdge 321554750 4488594 419865353 152377568 152377560 152377574#1 234004943 38238212" color="yellow" id="A5N-B43W" />
    <route edges="A5S1 4488554 39175135 387746811 156265645 23286275 4488571 307213473 307216717 3993482 153261740 153261739 3993501" color="yellow" id="A5S-A3O" />
    <route edges="A5S1 4488554 20629597 387746862 132979565 4488561 387746825 4488563 4488573 419865347 4488587 234004932 4488588 39175423" color="yellow" id="A5S-A3W" />
    <route edges="A5S1 23286478 23286356 23286447 A5N1" color="yellow" id="A5S-A5N" />
    <route edges="A5S1 4488554 20629597 387746862 132979565 4488561 26529486 387746829#1 132979552 A5N1" color="yellow" id="A5S-A5N-alt" />
    <route edges="A5S1 4488554 20629597 387746862 132979565 4488561 26529486 387746829#1 4488569#0 4488569#1 4743817 419865353 152377568 152377560 152377574#1 234004943 38238212" color="yellow" id="A5S-B43W" />
    <route edges="23337333 4746513 23337441 4743817 419865353 152377568 152377560 152377574#1 234004943 38238212" color="yellow" id="B43O-B43W" />
    <route edges="89837133 152303549 433450247 45781803 152377567 152377561 152446429 49203928 387746833 4780826 132979549 23286356 23286447 A5N1" color="yellow" id="B43W-A5N" />
    <route edges="89837133 152303549 433450247 45781803 152377567 152377561 152446429 4488584#0 4488584#1 23286423 23286426 A5S2" color="yellow" id="B43W-A5S" />
    <route edges="89837133 152303549 433450247 45781803 152377567 152377561 152446429 49203928 4743818 23337443 4746512" color="yellow" id="B43W-B43O" />

    <!--
        Flows generated by bast2scenario-tool.
        Reference file: "../ffk-reference/frankfurter-kreuz-ref.rou.xml"
        Date: 210903
        Hour: 18
        Warmup: 0
    -->

    <flow route="A3O-A3W" type="passenger" id="210903_18_flow_A3O-A3W_passenger" probability="0.55297959988378364571" begin="0" end="3599" departLane="best" departSpeed="max" />
    <flow route="A3O-A3W" type="van" id="210903_18_flow_A3O-A3W_van" probability="0.07637332420205038275" begin="0" end="3599" departLane="best" departSpeed="max" />
    <flow route="A3O-A3W" type="motorcycle" id="210903_18_flow_A3O-A3W_motorcycle" probability="0.01132590378948242042" begin="0" end="3599" departLane="best" departSpeed="max" />
    <flow route="A3O-A3W" type="passenger_misc" id="210903_18_flow_A3O-A3W_passenger_misc" probability="0.00979537625036317611" begin="0" end="3599" departLane="best" departSpeed="max" />
    <flow route="A3O-A3W" type="passenger_trailer" id="210903_18_flow_A3O-A3W_passenger_trailer" probability="0.00612211015647698507" begin="0" end="3599" departLane="best" departSpeed="max" />
    <flow route="A3O-A3W" type="bus" id="210903_18_flow_A3O-A3W_bus" probability="0.00107136927738347228" begin="0" end="3599" departLane="best" departSpeed="max" />
    <flow route="A3O-A3W" type="truck" id="210903_18_flow_A3O-A3W_truck" probability="0.01943769974681442553" begin="0" end="3599" departLane="best" departSpeed="max" />
    <flow route="A3O-A3W" type="truck_trailer" id="210903_18_flow_A3O-A3W_truck_trailer" probability="0.00612211015647698507" begin="0" end="3599" departLane="best" departSpeed="max" />
    <flow route="A3O-A3W" type="semitrailer" id="210903_18_flow_A3O-A3W_semitrailer" probability="0.02800865396588220549" begin="0" end="3599" departLane="best" departSpeed="max" />

    <flow route="A3O-A3W-alt" type="passenger" id="210903_18_flow_A3O-A3W-alt_passenger" probability="0.08885163740505541696" begin="0" end="3599" departLane="best" departSpeed="max" />
    <flow route="A3O-A3W-alt" type="van" id="210903_18_flow_A3O-A3W-alt_van" probability="0.01227151039721080875" begin="0" end="3599" departLane="best" departSpeed="max" />
    <flow route="A3O-A3W-alt" type="motorcycle" id="210903_18_flow_A3O-A3W-alt_motorcycle" probability="0.00181982318515751468" begin="0" end="3599" departLane="best" departSpeed="max" />
    <flow route="A3O-A3W-alt" type="passenger_misc" id="210903_18_flow_A3O-A3W-alt_passenger_misc" probability="0.00157390113310920199" begin="0" end="3599" departLane="best" departSpeed="max" />
    <flow route="A3O-A3W-alt" type="passenger_trailer" id="210903_18_flow_A3O-A3W-alt_passenger_trailer" probability="0.00098368820819325119" begin="0" end="3599" departLane="best" departSpeed="max" />
    <flow route="A3O-A3W-alt" type="bus" id="210903_18_flow_A3O-A3W-alt_bus" probability="0.00017214543643381895" begin="0" end="3599" departLane="best" departSpeed="max" />
    <flow route="A3O-A3W-alt" type="truck" id="210903_18_flow_A3O-A3W-alt_truck" probability="0.00312321006101357263" begin="0" end="3599" departLane="best" departSpeed="max" />
    <flow route="A3O-A3W-alt" type="truck_trailer" id="210903_18_flow_A3O-A3W-alt_truck_trailer" probability="0.00098368820819325119" begin="0" end="3599" departLane="best" departSpeed="max" />
    <flow route="A3O-A3W-alt" type="semitrailer" id="210903_18_flow_A3O-A3W-alt_semitrailer" probability="0.00450037355248412464" begin="0" end="3599" departLane="best" departSpeed="max" />

    <flow route="A3O-A5N" type="passenger" id="210903_18_flow_A3O-A5N_passenger" probability="0.23956200971236457642" begin="0" end="3599" departLane="best" departSpeed="max" />
    <flow route="A3O-A5N" type="van" id="210903_18_flow_A3O-A5N_van" probability="0.03308647740007471250" begin="0" end="3599" departLane="best" departSpeed="max" />
    <flow route="A3O-A5N" type="motorcycle" id="210903_18_flow_A3O-A5N_motorcycle" probability="0.00490661187896899564" begin="0" end="3599" departLane="best" departSpeed="max" />
    <flow route="A3O-A5N" type="passenger_misc" id="210903_18_flow_A3O-A5N_passenger_misc" probability="0.00424355621964886062" begin="0" end="3599" departLane="best" departSpeed="max" />
    <flow route="A3O-A5N" type="passenger_trailer" id="210903_18_flow_A3O-A5N_passenger_trailer" probability="0.00265222263728053789" begin="0" end="3599" departLane="best" departSpeed="max" />
    <flow route="A3O-A5N" type="bus" id="210903_18_flow_A3O-A5N_bus" probability="0.00046413896152409418" begin="0" end="3599" departLane="best" departSpeed="max" />
    <flow route="A3O-A5N" type="truck" id="210903_18_flow_A3O-A5N_truck" probability="0.00842080687336570904" begin="0" end="3599" departLane="best" departSpeed="max" />
    <flow route="A3O-A5N" type="truck_trailer" id="210903_18_flow_A3O-A5N_truck_trailer" probability="0.00265222263728053789" begin="0" end="3599" departLane="best" departSpeed="max" />
    <flow route="A3O-A5N" type="semitrailer" id="210903_18_flow_A3O-A5N_semitrailer" probability="0.01213391856555846166" begin="0" end="3599" departLane="best" departSpeed="max" />

    <flow route="A3O-A5S" type="passenger" id="210903_18_flow_A3O-A5S_passenger" probability="0.12221786410990745364" begin="0" end="3599" departLane="best" departSpeed="max" />
    <flow route="A3O-A5S" type="van" id="210903_18_flow_A3O-A5S_van" probability="0.01687979911177520456" begin="0" end="3599" departLane="best" departSpeed="max" />
    <flow route="A3O-A5S" type="motorcycle" id="210903_18_flow_A3O-A5S_motorcycle" probability="0.00250321670194662360" begin="0" end="3599" departLane="best" departSpeed="max" />
    <flow route="A3O-A5S" type="passenger_misc" id="210903_18_flow_A3O-A5S_passenger_misc" probability="0.00216494417465653947" begin="0" end="3599" departLane="best" departSpeed="max" />
    <flow route="A3O-A5S" type="passenger_trailer" id="210903_18_flow_A3O-A5S_passenger_trailer" probability="0.00135309010916033717" begin="0" end="3599" departLane="best" departSpeed="max" />
    <flow route="A3O-A5S" type="bus" id="210903_18_flow_A3O-A5S_bus" probability="0.00023679076910305898" begin="0" end="3599" departLane="best" departSpeed="max" />
    <flow route="A3O-A5S" type="truck" id="210903_18_flow_A3O-A5S_truck" probability="0.00429606109658407093" begin="0" end="3599" departLane="best" departSpeed="max" />
    <flow route="A3O-A5S" type="truck_trailer" id="210903_18_flow_A3O-A5S_truck_trailer" probability="0.00135309010916033717" begin="0" end="3599" departLane="best" departSpeed="max" />
    <flow route="A3O-A5S" type="semitrailer" id="210903_18_flow_A3O-A5S_semitrailer" probability="0.00619038724940854275" begin="0" end="3599" departLane="best" departSpeed="max" />

    <flow route="A3W-A3O" type="passenger" id="210903_18_flow_A3W-A3O_passenger" probability="0.69209807324344763124" begin="0" end="3599" departLane="best" departSpeed="max" />
    <flow route="A3W-A3O" type="van" id="210903_18_flow_A3W-A3O_van" probability="0.08570284341209451207" begin="0" end="3599" departLane="best" departSpeed="max" />
    <flow route="A3W-A3O" type="motorcycle" id="210903_18_flow_A3W-A3O_motorcycle" probability="0.00685622747296756128" begin="0" end="3599" departLane="best" departSpeed="max" />
    <flow route="A3W-A3O" type="passenger_misc" id="210903_18_flow_A3W-A3O_passenger_misc" probability="0.00780848128865750061" begin="0" end="3599" departLane="best" departSpeed="max" />
    <flow route="A3W-A3O" type="passenger_trailer" id="210903_18_flow_A3W-A3O_passenger_trailer" probability="0.00818938281493347513" begin="0" end="3599" departLane="best" departSpeed="max" />
    <flow route="A3W-A3O" type="bus" id="210903_18_flow_A3W-A3O_bus" probability="0.00342811373648378064" begin="0" end="3599" departLane="best" departSpeed="max" />
    <flow route="A3W-A3O" type="truck" id="210903_18_flow_A3W-A3O_truck" probability="0.02513950073421438933" begin="0" end="3599" departLane="best" departSpeed="max" />
    <flow route="A3W-A3O" type="truck_trailer" id="210903_18_flow_A3W-A3O_truck_trailer" probability="0.01352200418279713399" begin="0" end="3599" departLane="best" departSpeed="max" />
    <flow route="A3W-A3O" type="semitrailer" id="210903_18_flow_A3W-A3O_semitrailer" probability="0.05408801673118853598" begin="0" end="3599" departLane="best" departSpeed="max" />

    <flow route="A3W-A5N" type="passenger" id="210903_18_flow_A3W-A5N_passenger" probability="0.14270480131713611516" begin="0" end="3599" departLane="best" departSpeed="max" />
    <flow route="A3W-A5N" type="van" id="210903_18_flow_A3W-A5N_van" probability="0.01767120544653584188" begin="0" end="3599" departLane="best" departSpeed="max" />
    <flow route="A3W-A5N" type="motorcycle" id="210903_18_flow_A3W-A5N_motorcycle" probability="0.00141369643572286717" begin="0" end="3599" departLane="best" departSpeed="max" />
    <flow route="A3W-A5N" type="passenger_misc" id="210903_18_flow_A3W-A5N_passenger_misc" probability="0.00161004316290659882" begin="0" end="3599" departLane="best" departSpeed="max" />
    <flow route="A3W-A5N" type="passenger_trailer" id="210903_18_flow_A3W-A5N_passenger_trailer" probability="0.00168858185378009174" begin="0" end="3599" departLane="best" departSpeed="max" />
    <flow route="A3W-A5N" type="bus" id="210903_18_flow_A3W-A5N_bus" probability="0.00070684821786143358" begin="0" end="3599" departLane="best" departSpeed="max" />
    <flow route="A3W-A5N" type="truck" id="210903_18_flow_A3W-A5N_truck" probability="0.00518355359765051375" begin="0" end="3599" departLane="best" departSpeed="max" />
    <flow route="A3W-A5N" type="truck_trailer" id="210903_18_flow_A3W-A5N_truck_trailer" probability="0.00278812352600898853" begin="0" end="3599" departLane="best" departSpeed="max" />
    <flow route="A3W-A5N" type="semitrailer" id="210903_18_flow_A3W-A5N_semitrailer" probability="0.01115249410403595411" begin="0" end="3599" departLane="best" departSpeed="max" />

    <flow route="A3W-A5S" type="passenger" id="210903_18_flow_A3W-A5S_passenger" probability="0.17302451831086190781" begin="0" end="3599" departLane="best" departSpeed="max" />
    <flow route="A3W-A5S" type="van" id="210903_18_flow_A3W-A5S_van" probability="0.02142571085302362802" begin="0" end="3599" departLane="best" departSpeed="max" />
    <flow route="A3W-A5S" type="motorcycle" id="210903_18_flow_A3W-A5S_motorcycle" probability="0.00171405686824189032" begin="0" end="3599" departLane="best" departSpeed="max" />
    <flow route="A3W-A5S" type="passenger_misc" id="210903_18_flow_A3W-A5S_passenger_misc" probability="0.00195212032216437515" begin="0" end="3599" departLane="best" departSpeed="max" />
    <flow route="A3W-A5S" type="passenger_trailer" id="210903_18_flow_A3W-A5S_passenger_trailer" probability="0.00204734570373336878" begin="0" end="3599" departLane="best" departSpeed="max" />
    <flow route="A3W-A5S" type="bus" id="210903_18_flow_A3W-A5S_bus" probability="0.00085702843412094516" begin="0" end="3599" departLane="best" departSpeed="max" />
    <flow route="A3W-A5S" type="truck" id="210903_18_flow_A3W-A5S_truck" probability="0.00628487518355359733" begin="0" end="3599" departLane="best" departSpeed="max" />
    <flow route="A3W-A5S" type="truck_trailer" id="210903_18_flow_A3W-A5S_truck_trailer" probability="0.00338050104569928350" begin="0" end="3599" departLane="best" departSpeed="max" />
    <flow route="A3W-A5S" type="semitrailer" id="210903_18_flow_A3W-A5S_semitrailer" probability="0.01352200418279713399" begin="0" end="3599" departLane="best" departSpeed="max" />

    <flow route="A3W-B43W" type="passenger" id="210903_18_flow_A3W-B43W_passenger" probability="0.00161705157299870945" begin="0" end="3599" departLane="best" departSpeed="max" />
    <flow route="A3W-B43W" type="van" id="210903_18_flow_A3W-B43W_van" probability="0.00020024028834601522" begin="0" end="3599" departLane="best" departSpeed="max" />
    <flow route="A3W-B43W" type="motorcycle" id="210903_18_flow_A3W-B43W_motorcycle" probability="0.00001601922306768122" begin="0" end="3599" departLane="best" departSpeed="max" />
    <flow route="A3W-B43W" type="passenger_misc" id="210903_18_flow_A3W-B43W_passenger_misc" probability="0.00001824411516041472" begin="0" end="3599" departLane="best" departSpeed="max" />
    <flow route="A3W-B43W" type="passenger_trailer" id="210903_18_flow_A3W-B43W_passenger_trailer" probability="0.00001913407199750812" begin="0" end="3599" departLane="best" departSpeed="max" />
    <flow route="A3W-B43W" type="bus" id="210903_18_flow_A3W-B43W_bus" probability="0.00000800961153384061" begin="0" end="3599" departLane="best" departSpeed="max" />
    <flow route="A3W-B43W" type="truck" id="210903_18_flow_A3W-B43W_truck" probability="0.00005873715124816447" begin="0" end="3599" departLane="best" departSpeed="max" />
    <flow route="A3W-B43W" type="truck_trailer" id="210903_18_flow_A3W-B43W_truck_trailer" probability="0.00003159346771681574" begin="0" end="3599" departLane="best" departSpeed="max" />
    <flow route="A3W-B43W" type="semitrailer" id="210903_18_flow_A3W-B43W_semitrailer" probability="0.00012637387086726295" begin="0" end="3599" departLane="best" departSpeed="max" />

    <flow route="A5N-A5N" type="passenger" id="210903_18_flow_A5N-A5N_passenger" probability="0.02585551262788867571" begin="0" end="3599" departLane="best" departSpeed="max" />
    <flow route="A5N-A5N" type="van" id="210903_18_flow_A5N-A5N_van" probability="0.00293321170494383618" begin="0" end="3599" departLane="best" departSpeed="max" />
    <flow route="A5N-A5N" type="motorcycle" id="210903_18_flow_A5N-A5N_motorcycle" probability="0.00042695142019031262" begin="0" end="3599" departLane="best" departSpeed="max" />
    <flow route="A5N-A5N" type="passenger_misc" id="210903_18_flow_A5N-A5N_passenger_misc" probability="0.00051012377477284107" begin="0" end="3599" departLane="best" departSpeed="max" />
    <flow route="A5N-A5N" type="passenger_trailer" id="210903_18_flow_A5N-A5N_passenger_trailer" probability="0.00028278600558059668" begin="0" end="3599" departLane="best" departSpeed="max" />
    <flow route="A5N-A5N" type="bus" id="210903_18_flow_A5N-A5N_bus" probability="0.00004990341274951707" begin="0" end="3599" departLane="best" departSpeed="max" />
    <flow route="A5N-A5N" type="truck" id="210903_18_flow_A5N-A5N_truck" probability="0.00073191672032625024" begin="0" end="3599" departLane="best" departSpeed="max" />
    <flow route="A5N-A5N" type="truck_trailer" id="210903_18_flow_A5N-A5N_truck_trailer" probability="0.00024951706374758527" begin="0" end="3599" departLane="best" departSpeed="max" />
    <flow route="A5N-A5N" type="semitrailer" id="210903_18_flow_A5N-A5N_semitrailer" probability="0.00092598554768548327" begin="0" end="3599" departLane="best" departSpeed="max" />

    <flow route="A5N-A3O" type="passenger" id="210903_18_flow_A5N-A3O_passenger" probability="0.19099717392859699716" begin="0" end="3599" departLane="best" departSpeed="max" />
    <flow route="A5N-A3O" type="van" id="210903_18_flow_A5N-A3O_van" probability="0.02166791872361737217" begin="0" end="3599" departLane="best" departSpeed="max" />
    <flow route="A5N-A3O" type="motorcycle" id="210903_18_flow_A5N-A3O_motorcycle" probability="0.00315393145882521264" begin="0" end="3599" departLane="best" departSpeed="max" />
    <flow route="A5N-A3O" type="passenger_misc" id="210903_18_flow_A5N-A3O_passenger_misc" probability="0.00376833369106389102" begin="0" end="3599" departLane="best" departSpeed="max" />
    <flow route="A5N-A3O" type="passenger_trailer" id="210903_18_flow_A5N-A3O_passenger_trailer" probability="0.00208896758961150475" begin="0" end="3599" departLane="best" departSpeed="max" />
    <flow route="A5N-A3O" type="bus" id="210903_18_flow_A5N-A3O_bus" probability="0.00036864133934320665" begin="0" end="3599" departLane="best" departSpeed="max" />
    <flow route="A5N-A3O" type="truck" id="210903_18_flow_A5N-A3O_truck" probability="0.00540673964370036540" begin="0" end="3599" departLane="best" departSpeed="max" />
    <flow route="A5N-A3O" type="truck_trailer" id="210903_18_flow_A5N-A3O_truck_trailer" probability="0.00184320669671603340" begin="0" end="3599" departLane="best" departSpeed="max" />
    <flow route="A5N-A3O" type="semitrailer" id="210903_18_flow_A5N-A3O_semitrailer" probability="0.00684034485225728031" begin="0" end="3599" departLane="best" departSpeed="max" />

    <flow route="A5N-A3W" type="passenger" id="210903_18_flow_A5N-A3W_passenger" probability="0.18182263718966873434" begin="0" end="3599" departLane="best" departSpeed="max" />
    <flow route="A5N-A3W" type="van" id="210903_18_flow_A5N-A3W_van" probability="0.02062710166702439590" begin="0" end="3599" departLane="best" departSpeed="max" />
    <flow route="A5N-A3W" type="motorcycle" id="210903_18_flow_A5N-A3W_motorcycle" probability="0.00300243256778994069" begin="0" end="3599" departLane="best" departSpeed="max" />
    <flow route="A5N-A3W" type="passenger_misc" id="210903_18_flow_A5N-A3W_passenger_misc" probability="0.00358732202904772125" begin="0" end="3599" departLane="best" departSpeed="max" />
    <flow route="A5N-A3W" type="passenger_trailer" id="210903_18_flow_A5N-A3W_passenger_trailer" probability="0.00198862416827645400" begin="0" end="3599" departLane="best" departSpeed="max" />
    <flow route="A5N-A3W" type="bus" id="210903_18_flow_A5N-A3W_bus" probability="0.00035093367675466836" begin="0" end="3599" departLane="best" departSpeed="max" />
    <flow route="A5N-A3W" type="truck" id="210903_18_flow_A5N-A3W_truck" probability="0.00514702725906846913" begin="0" end="3599" departLane="best" departSpeed="max" />
    <flow route="A5N-A3W" type="truck_trailer" id="210903_18_flow_A5N-A3W_truck_trailer" probability="0.00175466838377334169" begin="0" end="3599" departLane="best" departSpeed="max" />
    <flow route="A5N-A3W" type="semitrailer" id="210903_18_flow_A5N-A3W_semitrailer" probability="0.00651176933533662364" begin="0" end="3599" departLane="best" departSpeed="max" />

    <flow route="A5N-A5S" type="passenger" id="210903_18_flow_A5N-A5S_passenger" probability="0.70894147528081852272" begin="0" end="3599" departLane="best" departSpeed="max" />
    <flow route="A5N-A5S" type="van" id="210903_18_flow_A5N-A5S_van" probability="0.08042677255491163801" begin="0" end="3599" departLane="best" departSpeed="max" />
    <flow route="A5N-A5S" type="motorcycle" id="210903_18_flow_A5N-A5S_motorcycle" probability="0.01170673248908921799" begin="0" end="3599" departLane="best" departSpeed="max" />
    <flow route="A5N-A5S" type="passenger_misc" id="210903_18_flow_A5N-A5S_passenger_misc" probability="0.01398726479215854634" begin="0" end="3599" departLane="best" departSpeed="max" />
    <flow route="A5N-A5S" type="passenger_trailer" id="210903_18_flow_A5N-A5S_passenger_trailer" probability="0.00775380983043571625" begin="0" end="3599" departLane="best" departSpeed="max" />
    <flow route="A5N-A5S" type="bus" id="210903_18_flow_A5N-A5S_bus" probability="0.00136831938184159697" begin="0" end="3599" departLane="best" departSpeed="max" />
    <flow route="A5N-A5S" type="truck" id="210903_18_flow_A5N-A5S_truck" probability="0.02006868426701008748" begin="0" end="3599" departLane="best" departSpeed="max" />
    <flow route="A5N-A5S" type="truck_trailer" id="210903_18_flow_A5N-A5S_truck_trailer" probability="0.00684159690920798508" begin="0" end="3599" departLane="best" departSpeed="max" />
    <flow route="A5N-A5S" type="semitrailer" id="210903_18_flow_A5N-A5S_semitrailer" probability="0.02538992630750519161" begin="0" end="3599" departLane="best" departSpeed="max" />

    <flow route="A5N-B43W" type="passenger" id="210903_18_flow_A5N-B43W_passenger" probability="0.18766097875080492430" begin="0" end="3599" departLane="best" departSpeed="max" />
    <flow route="A5N-B43W" type="van" id="210903_18_flow_A5N-B43W_van" probability="0.02128943979394719993" begin="0" end="3599" departLane="best" departSpeed="max" />
    <flow route="A5N-B43W" type="motorcycle" id="210903_18_flow_A5N-B43W_motorcycle" probability="0.00309884095299420466" begin="0" end="3599" departLane="best" departSpeed="max" />
    <flow route="A5N-B43W" type="passenger_misc" id="210903_18_flow_A5N-B43W_passenger_misc" probability="0.00370251126851255672" begin="0" end="3599" departLane="best" departSpeed="max" />
    <flow route="A5N-B43W" type="passenger_trailer" id="210903_18_flow_A5N-B43W_passenger_trailer" probability="0.00205247907276239535" begin="0" end="3599" departLane="best" departSpeed="max" />
    <flow route="A5N-B43W" type="bus" id="210903_18_flow_A5N-B43W_bus" probability="0.00036220218931101099" begin="0" end="3599" departLane="best" departSpeed="max" />
    <flow route="A5N-B43W" type="truck" id="210903_18_flow_A5N-B43W_truck" probability="0.00531229877656149482" begin="0" end="3599" departLane="best" departSpeed="max" />
    <flow route="A5N-B43W" type="truck_trailer" id="210903_18_flow_A5N-B43W_truck_trailer" probability="0.00181101094655505487" begin="0" end="3599" departLane="best" departSpeed="max" />
    <flow route="A5N-B43W" type="semitrailer" id="210903_18_flow_A5N-B43W_semitrailer" probability="0.00672086284610431527" begin="0" end="3599" departLane="best" departSpeed="max" />

    <flow route="A5S-A3O" type="passenger" id="210903_18_flow_A5S-A3O_passenger" probability="0.23631659056316589584" begin="0" end="3599" departLane="best" departSpeed="max" />
    <flow route="A5S-A3O" type="van" id="210903_18_flow_A5S-A3O_van" probability="0.02306697108066970911" begin="0" end="3599" departLane="best" departSpeed="max" />
    <flow route="A5S-A3O" type="motorcycle" id="210903_18_flow_A5S-A3O_motorcycle" probability="0.00170471841704718415" begin="0" end="3599" departLane="best" departSpeed="max" />
    <flow route="A5S-A3O" type="passenger_misc" id="210903_18_flow_A5S-A3O_passenger_misc" probability="0.00223744292237442908" begin="0" end="3599" departLane="best" departSpeed="max" />
    <flow route="A5S-A3O" type="passenger_trailer" id="210903_18_flow_A5S-A3O_passenger_trailer" probability="0.00218417047184170463" begin="0" end="3599" departLane="best" departSpeed="max" />
    <flow route="A5S-A3O" type="bus" id="210903_18_flow_A5S-A3O_bus" probability="0.00031963470319634703" begin="0" end="3599" departLane="best" departSpeed="max" />
    <flow route="A5S-A3O" type="truck" id="210903_18_flow_A5S-A3O_truck" probability="0.00607305936073059341" begin="0" end="3599" departLane="best" departSpeed="max" />
    <flow route="A5S-A3O" type="truck_trailer" id="210903_18_flow_A5S-A3O_truck_trailer" probability="0.00255707762557077622" begin="0" end="3599" departLane="best" departSpeed="max" />
    <flow route="A5S-A3O" type="semitrailer" id="210903_18_flow_A5S-A3O_semitrailer" probability="0.01081430745814307252" begin="0" end="3599" departLane="best" departSpeed="max" />

    <flow route="A5S-A3W" type="passenger" id="210903_18_flow_A5S-A3W_passenger" probability="0.10690512430238456598" begin="0" end="3599" departLane="best" departSpeed="max" />
    <flow route="A5S-A3W" type="van" id="210903_18_flow_A5S-A3W_van" probability="0.01043505834601724837" begin="0" end="3599" departLane="best" departSpeed="max" />
    <flow route="A5S-A3W" type="motorcycle" id="210903_18_flow_A5S-A3W_motorcycle" probability="0.00077118214104515475" begin="0" end="3599" departLane="best" departSpeed="max" />
    <flow route="A5S-A3W" type="passenger_misc" id="210903_18_flow_A5S-A3W_passenger_misc" probability="0.00101217656012176564" begin="0" end="3599" departLane="best" departSpeed="max" />
    <flow route="A5S-A3W" type="passenger_trailer" id="210903_18_flow_A5S-A3W_passenger_trailer" probability="0.00098807711821410449" begin="0" end="3599" departLane="best" departSpeed="max" />
    <flow route="A5S-A3W" type="bus" id="210903_18_flow_A5S-A3W_bus" probability="0.00014459665144596652" begin="0" end="3599" departLane="best" departSpeed="max" />