<?xml version="1.0" encoding="UTF-8"?>

<routes xmlns:xsi="http://www.w3.org/2001/XMLSchema-instance" xsi:noNamespaceSchemaLocation="http://sumo.dlr.de/xsd/routes_file.xsd">

    <!--
        truck, semitrailer and truck_trailer size calculated by using inner size from [0]
        and adding 2m length and 1m height according to [1]
        
        [0] https://www.alpensped.de/leistungen/fuhrpark/
        [1] https://www.wuerth-transporte.de/1.html
    -->
    <vType id="motorcycle" vClass="motorcycle" lcStrategic="0.75" lcCooperative="0.7" lcLookaheadLeft="0.7" lcPushy="0.2" lcAssertive="1.5" lcSigma="0.2" />
    <vType id="passenger" vClass="passenger" lcStrategic="0.75" lcCooperative="0.7" lcLookaheadLeft="0.7" lcPushy="0.2" lcAssertive="1.5" lcSigma="0.2" />
    <vType id="passenger_misc" vClass="passenger" lcStrategic="0.75" lcCooperative="0.7" lcLookaheadLeft="0.7" lcPushy="0.2" lcAssertive="1.5" lcSigma="0.2" />
    <vType id="van" vClass="passenger" guiShape="passenger/van" length="4.7" width="1.9" height="1.73" lcStrategic="0.75" lcCooperative="0.7" lcLookaheadLeft="0.7" lcPushy="0.2" lcAssertive="1.5" lcSigma="0.2" />
    <vType id="passenger_trailer" vClass="passenger" length="7.5" width="2" height="2.2" lcStrategic="0.75" lcCooperative="0.7" lcLookaheadLeft="0.7" lcPushy="0.2" lcAssertive="1.5" lcSigma="0.2" />
    <vType id="truck" vClass="truck" length="9" width="2.45" height="3.6" maxSpeed="80" lcStrategic="0.75" lcCooperative="0.7" lcLookaheadLeft="0.7" lcPushy="0.2" lcAssertive="1.5" lcSigma="0.2" lcKeepRight="100" lcSpeedGain="0.1" />
    <vType id="semitrailer" vClass="truck" guiShape="truck/semitrailer" length="15.6" width="2.5" height="4.04" maxSpeed="80" lcStrategic="0.75" lcCooperative="0.7" lcLookaheadLeft="0.7" lcPushy="0.2" lcAssertive="1.5" lcSigma="0.2" lcKeepRight="100" lcSpeedGain="0.1" />
    <vType id="truck_trailer" vClass="truck" guiShape="truck/trailer" length="17.6" width="2.5" height="4.20" maxSpeed="80" lcStrategic="0.75" lcCooperative="0.7" lcLookaheadLeft="0.7" lcPushy="0.2" lcAssertive="1.5" lcSigma="0.2" lcKeepRight="100" lcSpeedGain="0.1" />
    <vType id="bus" vClass="bus" lcStrategic="0.75" lcCooperative="0.7" lcLookaheadLeft="0.7" lcPushy="0.2" lcAssertive="1.5" lcSigma="0.2" lcKeepRight="100" lcSpeedGain="0.1" />

    <route edges="3993621 3993622" color="yellow" id="A3O-A3W" />
    <route edges="3993621 4488572 387746873 153320423 132979567 23286294 4488573 419865347 4488587 234004932 4488588 39175423" color="yellow" id="A3O-A3W-alt" />
    <route edges="3993621 4488572 387746873 153320423 132979567 20437071 4780826 132979549 23286356 23286447 A5N1" color="yellow" id="A3O-A5N" />
    <route edges="3993621 4488572 387746873 153320423 132979567 23286294 4488573 4488575 4488577 23286237 481371695 236522916 A5S2" color="yellow" id="A3O-A5S" />
    <route edges="133039111 4728785 37976720 152367113 307216717 3993482 153261740 153261739 3993501" color="yellow" id="A3W-A3O" />
    <route edges="133039111 20644480 108035020 228932147 4728850 387746860 20630373 4893840 234004960 387746834 4488560#0 4488560#1 387746832 4488561 26529486 387746829#1 132979552 A5N1" color="yellow" id="A3W-A5N" />
    <route edges="133039111 20644480 108035020 228932147 4728850 387746860 4488582 228932146 481371695 236522916 A5S2" color="yellow" id="A3W-A5S" />
    <route edges="133039111 20644480 108035020 228932147 4728850 387746860 20630373 4893840 234004960 387746834 4488560#0 4488560#1 387746832 4488561 26529486 387746829#1 4488569#0 4488569#1 4743817 419865353 152377568 152377560 152377574#1 234004943 38238212" color="yellow" id="A3W-B43W" />
    <route edges="A5N2 358653882-AddedOffRampEdge 321554750 387746861 75436542 23286376 4488583 4488577 20630094 4893840 234004960 387746834 4488560#0 4488560#1 387746832 4488561 26529486 387746829#1 132979552 A5N1" color="yellow" id="A5N-A5N" />
    <route edges="A5N2 358653882-AddedOffRampEdge 321554750 387746861 75436542 23286376 4488583 4488577 20630094 4893840 234004960 387746818 23286266 4488571 307213473 307216717 3993482 153261740 153261739 3993501" color="yellow" id="A5N-A3O" />
    <route edges="A5N2 358653882-AddedOffRampEdge 321554750 387746861 75436542 23286376 4488585#0 4488585#1 4488588 39175423" color="yellow" id="A5N-A3W" />
    <route edges="A5N2 358653882-AddedOffRampEdge 23286357 23286423 23286426 A5S2" color="yellow" id="A5N-A5S" />
    <route edges="A5N2 358653882-AddedOffRampEdge 321554750 4488594 419865353 152377568 152377560 152377574#1 234004943 38238212" color="yellow" id="A5N-B43W" />
    <route edges="A5S1 4488554 39175135 387746811 156265645 23286275 4488571 307213473 307216717 3993482 153261740 153261739 3993501" color="yellow" id="A5S-A3O" />
    <route edges="A5S1 4488554 20629597 387746862 132979565 4488561 387746825 4488563 4488573 419865347 4488587 234004932 4488588 39175423" color="yellow" id="A5S-A3W" />
    <route edges="A5S1 23286478 23286356 23286447 A5N1" color="yellow" id="A5S-A5N" />
    <route edges="A5S1 4488554 20629597 387746862 132979565 4488561 26529486 387746829#1 132979552 A5N1" color="yellow" id="A5S-A5N-alt" />
    <route edges="A5S1 4488554 20629597 387746862 132979565 4488561 26529486 387746829#1 4488569#0 4488569#1 4743817 419865353 152377568 152377560 152377574#1 234004943 38238212" color="yellow" id="A5S-B43W" />
    <route edges="23337333 4746513 23337441 4743817 419865353 152377568 152377560 152377574#1 234004943 38238212" color="yellow" id="B43O-B43W" />
    <route edges="89837133 152303549 433450247 45781803 152377567 152377561 152446429 49203928 387746833 4780826 132979549 23286356 23286447 A5N1" color="yellow" id="B43W-A5N" />
    <route edges="89837133 152303549 433450247 45781803 152377567 152377561 152446429 4488584#0 4488584#1 23286423 23286426 A5S2" color="yellow" id="B43W-A5S" />
    <route edges="89837133 152303549 433450247 45781803 152377567 152377561 152446429 49203928 4743818 23337443 4746512" color="yellow" id="B43W-B43O" />

    <!--
        Flows generated by bast2scenario-tool.
        Reference file: "../../frankfurter-kreuz-ref.rou.xml"
        Date: 210903
        Hour: 11
    -->

    <flow route="A3O-A3W" type="passenger" id="210903_11_flow_A3O-A3W_passenger" probability="0.404059270327481" begin="0" end="3599" departLane="best" departSpeed="max" />
    <flow route="A3O-A3W" type="van" id="210903_11_flow_A3O-A3W_van" probability="0.07484279666293114" begin="0" end="3599" departLane="best" departSpeed="max" />
    <flow route="A3O-A3W" type="motorcycle" id="210903_11_flow_A3O-A3W_motorcycle" probability="0.006581268418212759" begin="0" end="3599" departLane="best" departSpeed="max" />
    <flow route="A3O-A3W" type="passenger_misc" id="210903_11_flow_A3O-A3W_passenger_misc" probability="0.008111795957332005" begin="0" end="3599" departLane="best" departSpeed="max" />
    <flow route="A3O-A3W" type="passenger_trailer" id="210903_11_flow_A3O-A3W_passenger_trailer" probability="0.009642323496451251" begin="0" end="3599" departLane="best" departSpeed="max" />
    <flow route="A3O-A3W" type="bus" id="210903_11_flow_A3O-A3W_bus" probability="0.0007652637695596231" begin="0" end="3599" departLane="best" departSpeed="max" />
    <flow route="A3O-A3W" type="truck" id="210903_11_flow_A3O-A3W_truck" probability="0.0397937160171004" begin="0" end="3599" departLane="best" departSpeed="max" />
    <flow route="A3O-A3W" type="truck_trailer" id="210903_11_flow_A3O-A3W_truck_trailer" probability="0.015152222637280537" begin="0" end="3599" departLane="best" departSpeed="max" />
    <flow route="A3O-A3W" type="semitrailer" id="210903_11_flow_A3O-A3W_semitrailer" probability="0.060149732287386376" begin="0" end="3599" departLane="best" departSpeed="max" />

    <flow route="A3O-A3W-alt" type="passenger" id="210903_11_flow_A3O-A3W-alt_passenger" probability="0.06492342174075458" begin="0" end="3599" departLane="best" departSpeed="max" />
    <flow route="A3O-A3W-alt" type="van" id="210903_11_flow_A3O-A3W-alt_van" probability="0.012025588345162496" begin="0" end="3599" departLane="best" departSpeed="max" />
    <flow route="A3O-A3W-alt" type="motorcycle" id="210903_11_flow_A3O-A3W-alt_motorcycle" probability="0.001057464823807745" begin="0" end="3599" departLane="best" departSpeed="max" />
    <flow route="A3O-A3W-alt" type="passenger_misc" id="210903_11_flow_A3O-A3W-alt_passenger_misc" probability="0.0013033868758560577" begin="0" end="3599" departLane="best" departSpeed="max" />
    <flow route="A3O-A3W-alt" type="passenger_trailer" id="210903_11_flow_A3O-A3W-alt_passenger_trailer" probability="0.0015493089279043706" begin="0" end="3599" departLane="best" departSpeed="max" />
    <flow route="A3O-A3W-alt" type="bus" id="210903_11_flow_A3O-A3W-alt_bus" probability="0.0001229610260241564" begin="0" end="3599" departLane="best" departSpeed="max" />
    <flow route="A3O-A3W-alt" type="truck" id="210903_11_flow_A3O-A3W-alt_truck" probability="0.0063939733532561325" begin="0" end="3599" departLane="best" departSpeed="max" />
    <flow route="A3O-A3W-alt" type="truck_trailer" id="210903_11_flow_A3O-A3W-alt_truck_trailer" probability="0.002434628315278297" begin="0" end="3599" departLane="best" departSpeed="max" />
    <flow route="A3O-A3W-alt" type="semitrailer" id="210903_11_flow_A3O-A3W-alt_semitrailer" probability="0.009664736645498693" begin="0" end="3599" departLane="best" departSpeed="max" />

    <flow route="A3O-A5N" type="passenger" id="210903_11_flow_A3O-A5N_passenger" probability="0.17504669406051548" begin="0" end="3599" departLane="best" departSpeed="max" />
    <flow route="A3O-A5N" type="van" id="210903_11_flow_A3O-A5N_van" probability="0.03242342174075458" begin="0" end="3599" departLane="best" departSpeed="max" />
    <flow route="A3O-A5N" type="motorcycle" id="210903_11_flow_A3O-A5N_motorcycle" probability="0.0028511393350765784" begin="0" end="3599" departLane="best" departSpeed="max" />
    <flow route="A3O-A5N" type="passenger_misc" id="210903_11_flow_A3O-A5N_passenger_misc" probability="0.0035141949943967125" begin="0" end="3599" departLane="best" departSpeed="max" />
    <flow route="A3O-A5N" type="passenger_trailer" id="210903_11_flow_A3O-A5N_passenger_trailer" probability="0.004177250653716847" begin="0" end="3599" departLane="best" departSpeed="max" />
    <flow route="A3O-A5N" type="bus" id="210903_11_flow_A3O-A5N_bus" probability="0.00033152782966006724" begin="0" end="3599" departLane="best" departSpeed="max" />
    <flow route="A3O-A5N" type="truck" id="210903_11_flow_A3O-A5N_truck" probability="0.017239447142323498" begin="0" end="3599" departLane="best" departSpeed="max" />
    <flow route="A3O-A5N" type="truck_trailer" id="210903_11_flow_A3O-A5N_truck_trailer" probability="0.006564251027269331" begin="0" end="3599" departLane="best" departSpeed="max" />
    <flow route="A3O-A5N" type="semitrailer" id="210903_11_flow_A3O-A5N_semitrailer" probability="0.026058087411281284" begin="0" end="3599" departLane="best" departSpeed="max" />

    <flow route="A3O-A5S" type="passenger" id="210903_11_flow_A3O-A5S_passenger" probability="0.08930394720458225" begin="0" end="3599" departLane="best" departSpeed="max" />
    <flow route="A3O-A5S" type="van" id="210903_11_flow_A3O-A5S_van" probability="0.01654152658448512" begin="0" end="3599" departLane="best" departSpeed="max" />
    <flow route="A3O-A5S" type="motorcycle" id="210903_11_flow_A3O-A5S_motorcycle" probability="0.0014545718673473623" begin="0" end="3599" departLane="best" departSpeed="max" />
    <flow route="A3O-A5S" type="passenger_misc" id="210903_11_flow_A3O-A5S_passenger_misc" probability="0.0017928443946374467" begin="0" end="3599" departLane="best" departSpeed="max" />
    <flow route="A3O-A5S" type="passenger_trailer" id="210903_11_flow_A3O-A5S_passenger_trailer" probability="0.002131116921927531" begin="0" end="3599" departLane="best" departSpeed="max" />
    <flow route="A3O-A5S" type="bus" id="210903_11_flow_A3O-A5S_bus" probability="0.00016913626364504215" begin="0" end="3599" departLane="best" departSpeed="max" />
    <flow route="A3O-A5S" type="truck" id="210903_11_flow_A3O-A5S_truck" probability="0.008795085709542192" begin="0" end="3599" departLane="best" departSpeed="max" />
    <flow route="A3O-A5S" type="truck_trailer" id="210903_11_flow_A3O-A5S_truck_trailer" probability="0.003348898020171834" begin="0" end="3599" departLane="best" departSpeed="max" />
    <flow route="A3O-A5S" type="semitrailer" id="210903_11_flow_A3O-A5S_semitrailer" probability="0.01329411032250031" begin="0" end="3599" departLane="best" departSpeed="max" />

    <flow route="A3W-A3O" type="passenger" id="210903_11_flow_A3W-A3O_passenger" probability="0.5553544253103725" begin="0" end="3599" departLane="best" departSpeed="max" />
    <flow route="A3W-A3O" type="van" id="210903_11_flow_A3W-A3O_van" probability="0.09884394606861567" begin="0" end="3599" departLane="best" departSpeed="max" />
    <flow route="A3W-A3O" type="motorcycle" id="210903_11_flow_A3W-A3O_motorcycle" probability="0.006665776709829573" begin="0" end="3599" departLane="best" departSpeed="max" />
    <flow route="A3W-A3O" type="passenger_misc" id="210903_11_flow_A3W-A3O_passenger_misc" probability="0.01123659502514128" begin="0" end="3599" departLane="best" departSpeed="max" />
    <flow route="A3W-A3O" type="passenger_trailer" id="210903_11_flow_A3W-A3O_passenger_trailer" probability="0.016950117919280916" begin="0" end="3599" departLane="best" departSpeed="max" />
    <flow route="A3W-A3O" type="bus" id="210903_11_flow_A3W-A3O_bus" probability="0.0024758599207938417" begin="0" end="3599" departLane="best" departSpeed="max" />
    <flow route="A3W-A3O" type="truck" id="210903_11_flow_A3W-A3O_truck" probability="0.04018511102211542" begin="0" end="3599" departLane="best" departSpeed="max" />
    <flow route="A3W-A3O" type="truck_trailer" id="210903_11_flow_A3W-A3O_truck_trailer" probability="0.019235527076936768" begin="0" end="3599" departLane="best" departSpeed="max" />
    <flow route="A3W-A3O" type="semitrailer" id="210903_11_flow_A3W-A3O_semitrailer" probability="0.07103813465046944" begin="0" end="3599" departLane="best" departSpeed="max" />

    <flow route="A3W-A5N" type="passenger" id="210903_11_flow_A3W-A5N_passenger" probability="0.11450941129355226" begin="0" end="3599" departLane="best" departSpeed="max" />
    <flow route="A3W-A5N" type="van" id="210903_11_flow_A3W-A5N_van" probability="0.02038079028167134" begin="0" end="3599" departLane="best" departSpeed="max" />
    <flow route="A3W-A5N" type="motorcycle" id="210903_11_flow_A3W-A5N_motorcycle" probability="0.0013744270902861211" begin="0" end="3599" departLane="best" departSpeed="max" />
    <flow route="A3W-A5N" type="passenger_misc" id="210903_11_flow_A3W-A5N_passenger_misc" probability="0.0023168913807680327" begin="0" end="3599" departLane="best" departSpeed="max" />
    <flow route="A3W-A5N" type="passenger_trailer" id="210903_11_flow_A3W-A5N_passenger_trailer" probability="0.003494971743870422" begin="0" end="3599" departLane="best" departSpeed="max" />
    <flow route="A3W-A5N" type="bus" id="210903_11_flow_A3W-A5N_bus" probability="0.0005105014906777021" begin="0" end="3599" departLane="best" departSpeed="max" />
    <flow route="A3W-A5N" type="truck" id="210903_11_flow_A3W-A5N_truck" probability="0.008285831887153473" begin="0" end="3599" departLane="best" departSpeed="max" />
    <flow route="A3W-A5N" type="truck_trailer" id="210903_11_flow_A3W-A5N_truck_trailer" probability="0.003966203889111378" begin="0" end="3599" departLane="best" departSpeed="max" />
    <flow route="A3W-A5N" type="semitrailer" id="210903_11_flow_A3W-A5N_semitrailer" probability="0.014647465847906375" begin="0" end="3599" departLane="best" departSpeed="max" />

    <flow route="A3W-A5S" type="passenger" id="210903_11_flow_A3W-A5S_passenger" probability="0.13883860632759312" begin="0" end="3599" departLane="best" departSpeed="max" />
    <flow route="A3W-A5S" type="van" id="210903_11_flow_A3W-A5S_van" probability="0.024710986517153918" begin="0" end="3599" departLane="best" departSpeed="max" />
    <flow route="A3W-A5S" type="motorcycle" id="210903_11_flow_A3W-A5S_motorcycle" probability="0.0016664441774573932" begin="0" end="3599" departLane="best" departSpeed="max" />
    <flow route="A3W-A5S" type="passenger_misc" id="210903_11_flow_A3W-A5S_passenger_misc" probability="0.00280914875628532" begin="0" end="3599" departLane="best" departSpeed="max" />
    <flow route="A3W-A5S" type="passenger_trailer" id="210903_11_flow_A3W-A5S_passenger_trailer" probability="0.004237529479820229" begin="0" end="3599" departLane="best" departSpeed="max" />
    <flow route="A3W-A5S" type="bus" id="210903_11_flow_A3W-A5S_bus" probability="0.0006189649801984604" begin="0" end="3599" departLane="best" departSpeed="max" />
    <flow route="A3W-A5S" type="truck" id="210903_11_flow_A3W-A5S_truck" probability="0.010046277755528856" begin="0" end="3599" departLane="best" departSpeed="max" />
    <flow route="A3W-A5S" type="truck_trailer" id="210903_11_flow_A3W-A5S_truck_trailer" probability="0.004808881769234192" begin="0" end="3599" departLane="best" departSpeed="max" />
    <flow route="A3W-A5S" type="semitrailer" id="210903_11_flow_A3W-A5S_semitrailer" probability="0.01775953366261736" begin="0" end="3599" departLane="best" departSpeed="max" />

    <flow route="A3W-B43W" type="passenger" id="210903_11_flow_A3W-B43W_passenger" probability="0.0012975570684821784" begin="0" end="3599" departLane="best" departSpeed="max" />
    <flow route="A3W-B43W" type="van" id="210903_11_flow_A3W-B43W_van" probability="0.00023094379922573757" begin="0" end="3599" departLane="best" departSpeed="max" />
    <flow route="A3W-B43W" type="motorcycle" id="210903_11_flow_A3W-B43W_motorcycle" probability="1.5574244649134515e-05" begin="0" end="3599" departLane="best" departSpeed="max" />
    <flow route="A3W-B43W" type="passenger_misc" id="210903_11_flow_A3W-B43W_passenger_misc" probability="2.625372669425533e-05" begin="0" end="3599" departLane="best" departSpeed="max" />
    <flow route="A3W-B43W" type="passenger_trailer" id="210903_11_flow_A3W-B43W_passenger_trailer" probability="3.9603079250656344e-05" begin="0" end="3599" departLane="best" departSpeed="max" />
    <flow route="A3W-B43W" type="bus" id="210903_11_flow_A3W-B43W_bus" probability="5.784719441107107e-06" begin="0" end="3599" departLane="best" departSpeed="max" />
    <flow route="A3W-B43W" type="truck" id="210903_11_flow_A3W-B43W_truck" probability="9.38904463133538e-05" begin="0" end="3599" departLane="best" departSpeed="max" />
    <flow route="A3W-B43W" type="truck_trailer" id="210903_11_flow_A3W-B43W_truck_trailer" probability="4.4942820273216746e-05" begin="0" end="3599" departLane="best" departSpeed="max" />
    <flow route="A3W-B43W" type="semitrailer" id="210903_11_flow_A3W-B43W_semitrailer" probability="0.00016597695011791926" begin="0" end="3599" departLane="best" departSpeed="max" />

    <flow route="A5N-A5N" type="passenger" id="210903_11_flow_A5N-A5N_passenger" probability="0.017100236102167845" begin="0" end="3599" departLane="best" departSpeed="max" />
    <flow route="A5N-A5N" type="van" id="210903_11_flow_A5N-A5N_van" probability="0.0021680260427845745" begin="0" end="3599" departLane="best" departSpeed="max" />
    <flow route="A5N-A5N" type="motorcycle" id="210903_11_flow_A5N-A5N_motorcycle" probability="0.0003271445946912785" begin="0" end="3599" departLane="best" departSpeed="max" />
    <flow route="A5N-A5N" type="passenger_misc" id="210903_11_flow_A5N-A5N_passenger_misc" probability="0.00041031694927380695" begin="0" end="3599" departLane="best" departSpeed="max" />
    <flow route="A5N-A5N" type="passenger_trailer" id="210903_11_flow_A5N-A5N_passenger_trailer" probability="0.00018297918008156256" begin="0" end="3599" departLane="best" departSpeed="max" />
    <flow route="A5N-A5N" type="bus" id="210903_11_flow_A5N-A5N_bus" probability="6.653788366602275e-05" begin="0" end="3599" departLane="best" departSpeed="max" />
    <flow route="A5N-A5N" type="truck" id="210903_11_flow_A5N-A5N_truck" probability="0.0011755026114330686" begin="0" end="3599" departLane="best" departSpeed="max" />
    <flow route="A5N-A5N" type="truck_trailer" id="210903_11_flow_A5N-A5N_truck_trailer" probability="0.0003326894183301137" begin="0" end="3599" departLane="best" departSpeed="max" />
    <flow route="A5N-A5N" type="semitrailer" id="210903_11_flow_A5N-A5N_semitrailer" probability="0.0012919439078486082" begin="0" end="3599" departLane="best" departSpeed="max" />

    <flow route="A5N-A3O" type="passenger" id="210903_11_flow_A5N-A3O_passenger" probability="0.12632109894827215" begin="0" end="3599" departLane="best" departSpeed="max" />
    <flow route="A5N-A3O" type="van" id="210903_11_flow_A5N-A3O_van" probability="0.016015418187021537" begin="0" end="3599" departLane="best" departSpeed="max" />
    <flow route="A5N-A3O" type="motorcycle" id="210903_11_flow_A5N-A3O_motorcycle" probability="0.0024166487801387995" begin="0" end="3599" departLane="best" departSpeed="max" />
    <flow route="A5N-A3O" type="passenger_misc" id="210903_11_flow_A5N-A3O_passenger_misc" probability="0.0030310510123774774" begin="0" end="3599" departLane="best" departSpeed="max" />
    <flow route="A5N-A3O" type="passenger_trailer" id="210903_11_flow_A5N-A3O_passenger_trailer" probability="0.0013516849109250913" begin="0" end="3599" departLane="best" departSpeed="max" />
    <flow route="A5N-A3O" type="bus" id="210903_11_flow_A5N-A3O_bus" probability="0.0004915217857909423" begin="0" end="3599" departLane="best" departSpeed="max" />
    <flow route="A5N-A3O" type="truck" id="210903_11_flow_A5N-A3O_truck" probability="0.008683551548973312" begin="0" end="3599" departLane="best" departSpeed="max" />
    <flow route="A5N-A3O" type="truck_trailer" id="210903_11_flow_A5N-A3O_truck_trailer" probability="0.0024576089289547113" begin="0" end="3599" departLane="best" departSpeed="max" />
    <flow route="A5N-A3O" type="semitrailer" id="210903_11_flow_A5N-A3O_semitrailer" probability="0.009543714674107463" begin="0" end="3599" departLane="best" departSpeed="max" />

    <flow route="A5N-A3W" type="passenger" id="210903_11_flow_A5N-A3W_passenger" probability="0.1202532732345997" begin="0" end="3599" departLane="best" departSpeed="max" />
    <flow route="A5N-A3W" type="van" id="210903_11_flow_A5N-A3W_van" probability="0.015246118623452813" begin="0" end="3599" departLane="best" departSpeed="max" />
    <flow route="A5N-A3W" type="motorcycle" id="210903_11_flow_A5N-A3W_motorcycle" probability="0.0023005652142806033" begin="0" end="3599" departLane="best" departSpeed="max" />
    <flow route="A5N-A3W" type="passenger_misc" id="210903_11_flow_A5N-A3W_passenger_misc" probability="0.0028854546755383843" begin="0" end="3599" departLane="best" departSpeed="max" />
    <flow route="A5N-A3W" type="passenger_trailer" id="210903_11_flow_A5N-A3W_passenger_trailer" probability="0.0012867568147671173" begin="0" end="3599" departLane="best" departSpeed="max" />
    <flow route="A5N-A3W" type="bus" id="210903_11_flow_A5N-A3W_bus" probability="0.00046791156900622446" begin="0" end="3599" departLane="best" departSpeed="max" />
    <flow route="A5N-A3W" type="truck" id="210903_11_flow_A5N-A3W_truck" probability="0.008266437719109966" begin="0" end="3599" departLane="best" departSpeed="max" />
    <flow route="A5N-A3W" type="truck_trailer" id="210903_11_flow_A5N-A3W_truck_trailer" probability="0.0023395578450311227" begin="0" end="3599" departLane="best" departSpeed="max" />
    <flow route="A5N-A3W" type="semitrailer" id="210903_11_flow_A5N-A3W_semitrailer" probability="0.009085282964870859" begin="0" end="3599" departLane="best" departSpeed="max" />

    <flow route="A5N-A5S" type="passenger" id="210903_11_flow_A5N-A5S_passenger" probability="0.4688774415110539" begin="0" end="3599" departLane="best" departSpeed="max" />
    <flow route="A5N-A5S" type="van" id="210903_11_flow_A5N-A5S_van" probability="0.059445875366673825" begin="0" end="3599" departLane="best" departSpeed="max" />
    <flow route="A5N-A5S" type="motorcycle" id="210903_11_flow_A5N-A5S_motorcycle" probability="0.008970093725406024" begin="0" end="3599" departLane="best" departSpeed="max" />
    <flow route="A5N-A5S" type="passenger_misc" id="210903_11_flow_A5N-A5S_passenger_misc" probability="0.011250626028475352" begin="0" end="3599" departLane="best" departSpeed="max" />
    <flow route="A5N-A5S" type="passenger_trailer" id="210903_11_flow_A5N-A5S_passenger_trailer" probability="0.005017171066752522" begin="0" end="3599" departLane="best" departSpeed="max" />
    <flow route="A5N-A5S" type="bus" id="210903_11_flow_A5N-A5S_bus" probability="0.0018244258424554626" begin="0" end="3599" departLane="best" departSpeed="max" />
    <flow route="A5N-A5S" type="truck" id="210903_11_flow_A5N-A5S_truck" probability="0.03223152321671317" begin="0" end="3599" departLane="best" departSpeed="max" />
    <flow route="A5N-A5S" type="truck_trailer" id="210903_11_flow_A5N-A5S_truck_trailer" probability="0.009122129212277313" begin="0" end="3599" departLane="best" departSpeed="max" />
    <flow route="A5N-A5S" type="semitrailer" id="210903_11_flow_A5N-A5S_semitrailer" probability="0.03542426844101024" begin="0" end="3599" departLane="best" departSpeed="max" />

    <flow route="A5N-B43W" type="passenger" id="210903_11_flow_A5N-B43W_passenger" probability="0.1241146168705731" begin="0" end="3599" departLane="best" departSpeed="max" />
    <flow route="A5N-B43W" type="van" id="210903_11_flow_A5N-B43W_van" probability="0.015735672891178366" begin="0" end="3599" departLane="best" departSpeed="max" />
    <flow route="A5N-B43W" type="motorcycle" id="210903_11_flow_A5N-B43W_motorcycle" probability="0.002374436574372183" begin="0" end="3599" departLane="best" departSpeed="max" />
    <flow route="A5N-B43W" type="passenger_misc" id="210903_11_flow_A5N-B43W_passenger_misc" probability="0.0029781068898905344" begin="0" end="3599" departLane="best" departSpeed="max" />
    <flow route="A5N-B43W" type="passenger_trailer" id="210903_11_flow_A5N-B43W_passenger_trailer" probability="0.0013280746941403737" begin="0" end="3599" departLane="best" departSpeed="max" />
    <flow route="A5N-B43W" type="bus" id="210903_11_flow_A5N-B43W_bus" probability="0.0004829362524146813" begin="0" end="3599" departLane="best" departSpeed="max" />
    <flow route="A5N-B43W" type="truck" id="210903_11_flow_A5N-B43W_truck" probability="0.00853187379265937" begin="0" end="3599" departLane="best" departSpeed="max" />
    <flow route="A5N-B43W" type="truck_trailer" id="210903_11_flow_A5N-B43W_truck_trailer" probability="0.0024146812620734065" begin="0" end="3599" departLane="best" departSpeed="max" />
    <flow route="A5N-B43W" type="semitrailer" id="210903_11_flow_A5N-B43W_semitrailer" probability="0.009377012234385062" begin="0" end="3599" departLane="best" departSpeed="max" />

    <flow route="A5S-A3O" type="passenger" id="210903_11_flow_A5S-A3O_passenger" probability="0.15012176560121765" begin="0" end="3599" departLane="best" departSpeed="max" />
    <flow route="A5S-A3O" type="van" id="210903_11_flow_A5S-A3O_van" probability="0.020509893455098932" begin="0" end="3599" departLane="best" departSpeed="max" />
    <flow route="A5S-A3O" type="motorcycle" id="210903_11_flow_A5S-A3O_motorcycle" probability="0.0013318112633181126" begin="0" end="3599" departLane="best" departSpeed="max" />
    <flow route="A5S-A3O" type="passenger_misc" id="210903_11_flow_A5S-A3O_passenger_misc" probability="0.0020243531202435313" begin="0" end="3599" departLane="best" departSpeed="max" />
    <flow route="A5S-A3O" type="passenger_trailer" id="210903_11_flow_A5S-A3O_passenger_trailer" probability="0.001598173515981735" begin="0" end="3599" departLane="best" departSpeed="max" />
    <flow route="A5S-A3O" type="bus" id="210903_11_flow_A5S-A3O_bus" probability="0.0005859969558599696" begin="0" end="3599" departLane="best" departSpeed="max" />
    <flow route="A5S-A3O" type="truck" id="210903_11_flow_A5S-A3O_truck" probability="0.008896499238964992" begin="0" end="3599" departLane="best" departSpeed="max" />
    <flow route="A5S-A3O" type="truck_trailer" id="210903_11_flow_A5S-A3O_truck_trailer" probability="0.0050608828006088276" begin="0" end="3599" departLane="best" departSpeed="max" />
    <flow route="A5S-A3O" type="semitrailer" id="210903_11_flow_A5S-A3O_semitrailer" probability="0.016141552511415524" begin="0" end="3599" departLane="best" departSpeed="max" />

    <flow route="A5S-A3W" type="passenger" id="210903_11_flow_A5S-A3W_passenger" probability="0.06791222729578893" begin="0" end="3599" departLane="best" departSpeed="max" />
    <flow route="A5S-A3W" type="van" id="210903_11_flow_A5S-A3W_van" probability="0.009278285134449518" begin="0" end="3599" departLane="best" departSpeed="max" />
    <flow route="A5S-A3W" type="motorcycle" id="210903_11_flow_A5S-A3W_motorcycle" probability="0.0006024860476915271" begin="0" end="3599" departLane="best" departSpeed="max" />
    <flow route="A5S-A3W" type="passenger_misc" id="210903_11_flow_A5S-A3W_passenger_misc" probability="0.0009157787924911211" begin="0" end="3599" departLane="best" departSpeed="max" />
    <flow route="A5S-A3W" type="passenger_trailer" id="210903_11_flow_A5S-A3W_passenger_trailer" probability="0.0007229832572298326" begin="0" end="3599" departLane="best" departSpeed="max" />
    <flow route="A5S-A3W" type="bus" id="210903_11_flow_A5S-A3W_bus" probability="0.00026509386098427193" begin="0" end="3599" departLane="best" departSpeed="max" />
    <flow route="A5S-A3W" type="truck" id="210903_11_flow_A5S-A3W_truck" probability="0.004024606798579401" begin="0" end="3599" departLane="best" departSpeed="max" />
    <flow route="A5S-A3W" type="truck_trailer" id="210903_11_flow_A5S-A3W_truck_trailer" probability="0.0022894469812278027" begin="0" end="3599" departLane="best" departSpeed="max" />