<?xml version="1.0" encoding="UTF-8"?>

<routes xmlns:xsi="http://www.w3.org/2001/XMLSchema-instance" xsi:noNamespaceSchemaLocation="http://sumo.dlr.de/xsd/routes_file.xsd">

    <!--
        truck, semitrailer and truck_trailer size calculated by using inner size from [0]
        and adding 2m length and 1m height according to [1]
        
        [0] https://www.alpensped.de/leistungen/fuhrpark/
        [1] https://www.wuerth-transporte.de/1.html
    -->
    <vType id="motorcycle" vClass="motorcycle" lcStrategic="0.75" lcCooperative="0.7" lcLookaheadLeft="0.7" lcPushy="0.2" lcAssertive="1.5" lcSigma="0.2" />
    <vType id="passenger" vClass="passenger" lcStrategic="0.75" lcCooperative="0.7" lcLookaheadLeft="0.7" lcPushy="0.2" lcAssertive="1.5" lcSigma="0.2" />
    <vType id="passenger_misc" vClass="passenger" lcStrategic="0.75" lcCooperative="0.7" lcLookaheadLeft="0.7" lcPushy="0.2" lcAssertive="1.5" lcSigma="0.2" />
    <vType id="van" vClass="passenger" guiShape="passenger/van" length="4.7" width="1.9" height="1.73" lcStrategic="0.75" lcCooperative="0.7" lcLookaheadLeft="0.7" lcPushy="0.2" lcAssertive="1.5" lcSigma="0.2" />
    <vType id="passenger_trailer" vClass="passenger" length="7.5" width="2" height="2.2" lcStrategic="0.75" lcCooperative="0.7" lcLookaheadLeft="0.7" lcPushy="0.2" lcAssertive="1.5" lcSigma="0.2" />
    <vType id="truck" vClass="truck" length="9" width="2.45" height="3.6" maxSpeed="80" lcStrategic="0.75" lcCooperative="0.7" lcLookaheadLeft="0.7" lcPushy="0.2" lcAssertive="1.5" lcSigma="0.2" lcKeepRight="100" lcSpeedGain="0.1" />
    <vType id="semitrailer" vClass="truck" guiShape="truck/semitrailer" length="15.6" width="2.5" height="4.04" maxSpeed="80" lcStrategic="0.75" lcCooperative="0.7" lcLookaheadLeft="0.7" lcPushy="0.2" lcAssertive="1.5" lcSigma="0.2" lcKeepRight="100" lcSpeedGain="0.1" />
    <vType id="truck_trailer" vClass="truck" guiShape="truck/trailer" length="17.6" width="2.5" height="4.20" maxSpeed="80" lcStrategic="0.75" lcCooperative="0.7" lcLookaheadLeft="0.7" lcPushy="0.2" lcAssertive="1.5" lcSigma="0.2" lcKeepRight="100" lcSpeedGain="0.1" />
    <vType id="bus" vClass="bus" lcStrategic="0.75" lcCooperative="0.7" lcLookaheadLeft="0.7" lcPushy="0.2" lcAssertive="1.5" lcSigma="0.2" lcKeepRight="100" lcSpeedGain="0.1" />

    <route edges="3993621 3993622" color="yellow" id="A3O-A3W" />
    <route edges="3993621 4488572 387746873 153320423 132979567 23286294 4488573 419865347 4488587 234004932 4488588 39175423" color="yellow" id="A3O-A3W-alt" />
    <route edges="3993621 4488572 387746873 153320423 132979567 20437071 4780826 132979549 23286356 23286447 A5N1" color="yellow" id="A3O-A5N" />
    <route edges="3993621 4488572 387746873 153320423 132979567 23286294 4488573 4488575 4488577 23286237 481371695 236522916 A5S2" color="yellow" id="A3O-A5S" />
    <route edges="133039111 4728785 37976720 152367113 307216717 3993482 153261740 153261739 3993501" color="yellow" id="A3W-A3O" />
    <route edges="133039111 20644480 108035020 228932147 4728850 387746860 20630373 4893840 234004960 387746834 4488560#0 4488560#1 387746832 4488561 26529486 387746829#1 132979552 A5N1" color="yellow" id="A3W-A5N" />
    <route edges="133039111 20644480 108035020 228932147 4728850 387746860 4488582 228932146 481371695 236522916 A5S2" color="yellow" id="A3W-A5S" />
    <route edges="133039111 20644480 108035020 228932147 4728850 387746860 20630373 4893840 234004960 387746834 4488560#0 4488560#1 387746832 4488561 26529486 387746829#1 4488569#0 4488569#1 4743817 419865353 152377568 152377560 152377574#1 234004943 38238212" color="yellow" id="A3W-B43W" />
    <route edges="A5N2 358653882-AddedOffRampEdge 321554750 387746861 75436542 23286376 4488583 4488577 20630094 4893840 234004960 387746834 4488560#0 4488560#1 387746832 4488561 26529486 387746829#1 132979552 A5N1" color="yellow" id="A5N-A5N" />
    <route edges="A5N2 358653882-AddedOffRampEdge 321554750 387746861 75436542 23286376 4488583 4488577 20630094 4893840 234004960 387746818 23286266 4488571 307213473 307216717 3993482 153261740 153261739 3993501" color="yellow" id="A5N-A3O" />
    <route edges="A5N2 358653882-AddedOffRampEdge 321554750 387746861 75436542 23286376 4488585#0 4488585#1 4488588 39175423" color="yellow" id="A5N-A3W" />
    <route edges="A5N2 358653882-AddedOffRampEdge 23286357 23286423 23286426 A5S2" color="yellow" id="A5N-A5S" />
    <route edges="A5N2 358653882-AddedOffRampEdge 321554750 4488594 419865353 152377568 152377560 152377574#1 234004943 38238212" color="yellow" id="A5N-B43W" />
    <route edges="A5S1 4488554 39175135 387746811 156265645 23286275 4488571 307213473 307216717 3993482 153261740 153261739 3993501" color="yellow" id="A5S-A3O" />
    <route edges="A5S1 4488554 20629597 387746862 132979565 4488561 387746825 4488563 4488573 419865347 4488587 234004932 4488588 39175423" color="yellow" id="A5S-A3W" />
    <route edges="A5S1 23286478 23286356 23286447 A5N1" color="yellow" id="A5S-A5N" />
    <route edges="A5S1 4488554 20629597 387746862 132979565 4488561 26529486 387746829#1 132979552 A5N1" color="yellow" id="A5S-A5N-alt" />
    <route edges="A5S1 4488554 20629597 387746862 132979565 4488561 26529486 387746829#1 4488569#0 4488569#1 4743817 419865353 152377568 152377560 152377574#1 234004943 38238212" color="yellow" id="A5S-B43W" />
    <route edges="23337333 4746513 23337441 4743817 419865353 152377568 152377560 152377574#1 234004943 38238212" color="yellow" id="B43O-B43W" />
    <route edges="89837133 152303549 433450247 45781803 152377567 152377561 152446429 49203928 387746833 4780826 132979549 23286356 23286447 A5N1" color="yellow" id="B43W-A5N" />
    <route edges="89837133 152303549 433450247 45781803 152377567 152377561 152446429 4488584#0 4488584#1 23286423 23286426 A5S2" color="yellow" id="B43W-A5S" />
    <route edges="89837133 152303549 433450247 45781803 152377567 152377561 152446429 49203928 4743818 23337443 4746512" color="yellow" id="B43W-B43O" />

    <!--
        Flows generated by bast2scenario-tool.
        Reference file: "../../frankfurter-kreuz-ref.rou.xml"
        Date: 210903
        Hour: 19
    -->

    <flow route="A3O-A3W" type="passenger" id="210903_19_flow_A3O-A3W_passenger" probability="0.5082881957415016" begin="0" end="3599" departLane="best" departSpeed="max" />
    <flow route="A3O-A3W" type="van" id="210903_19_flow_A3O-A3W_van" probability="0.06535352592039181" begin="0" end="3599" departLane="best" departSpeed="max" />
    <flow route="A3O-A3W" type="motorcycle" id="210903_19_flow_A3O-A3W_motorcycle" probability="0.012703378574689745" begin="0" end="3599" departLane="best" departSpeed="max" />
    <flow route="A3O-A3W" type="passenger_misc" id="210903_19_flow_A3O-A3W_passenger_misc" probability="0.0099484290042751" begin="0" end="3599" departLane="best" departSpeed="max" />
    <flow route="A3O-A3W" type="passenger_trailer" id="210903_19_flow_A3O-A3W_passenger_trailer" probability="0.007346532187772382" begin="0" end="3599" departLane="best" departSpeed="max" />
    <flow route="A3O-A3W" type="bus" id="210903_19_flow_A3O-A3W_bus" probability="0.00015305275391192463" begin="0" end="3599" departLane="best" departSpeed="max" />
    <flow route="A3O-A3W" type="truck" id="210903_19_flow_A3O-A3W_truck" probability="0.01591748640684016" begin="0" end="3599" departLane="best" departSpeed="max" />
    <flow route="A3O-A3W" type="truck_trailer" id="210903_19_flow_A3O-A3W_truck_trailer" probability="0.007805690449508155" begin="0" end="3599" departLane="best" departSpeed="max" />
    <flow route="A3O-A3W" type="semitrailer" id="210903_19_flow_A3O-A3W_semitrailer" probability="0.027243390196322582" begin="0" end="3599" departLane="best" departSpeed="max" />

    <flow route="A3O-A3W-alt" type="passenger" id="210903_19_flow_A3O-A3W-alt_passenger" probability="0.08167071348524468" begin="0" end="3599" departLane="best" departSpeed="max" />
    <flow route="A3O-A3W-alt" type="van" id="210903_19_flow_A3O-A3W-alt_van" probability="0.010500871622462958" begin="0" end="3599" departLane="best" departSpeed="max" />
    <flow route="A3O-A3W-alt" type="motorcycle" id="210903_19_flow_A3O-A3W-alt_motorcycle" probability="0.002041153032000996" begin="0" end="3599" departLane="best" departSpeed="max" />
    <flow route="A3O-A3W-alt" type="passenger_misc" id="210903_19_flow_A3O-A3W-alt_passenger_misc" probability="0.0015984933383140331" begin="0" end="3599" departLane="best" departSpeed="max" />
    <flow route="A3O-A3W-alt" type="passenger_trailer" id="210903_19_flow_A3O-A3W-alt_passenger_trailer" probability="0.0011804258498319014" begin="0" end="3599" departLane="best" departSpeed="max" />
    <flow route="A3O-A3W-alt" type="bus" id="210903_19_flow_A3O-A3W-alt_bus" probability="2.459220520483128e-05" begin="0" end="3599" departLane="best" departSpeed="max" />
    <flow route="A3O-A3W-alt" type="truck" id="210903_19_flow_A3O-A3W-alt_truck" probability="0.002557589341302453" begin="0" end="3599" departLane="best" departSpeed="max" />
    <flow route="A3O-A3W-alt" type="truck_trailer" id="210903_19_flow_A3O-A3W-alt_truck_trailer" probability="0.0012542024654463952" begin="0" end="3599" departLane="best" departSpeed="max" />
    <flow route="A3O-A3W-alt" type="semitrailer" id="210903_19_flow_A3O-A3W-alt_semitrailer" probability="0.004377412526459968" begin="0" end="3599" departLane="best" departSpeed="max" />

    <flow route="A3O-A5N" type="passenger" id="210903_19_flow_A3O-A5N_passenger" probability="0.22020078446021668" begin="0" end="3599" departLane="best" departSpeed="max" />
    <flow route="A3O-A5N" type="van" id="210903_19_flow_A3O-A5N_van" probability="0.028312476652969744" begin="0" end="3599" departLane="best" departSpeed="max" />
    <flow route="A3O-A5N" type="motorcycle" id="210903_19_flow_A3O-A5N_motorcycle" probability="0.005503361972357116" begin="0" end="3599" departLane="best" departSpeed="max" />
    <flow route="A3O-A5N" type="passenger_misc" id="210903_19_flow_A3O-A5N_passenger_misc" probability="0.0043098617855808746" begin="0" end="3599" departLane="best" departSpeed="max" />
    <flow route="A3O-A5N" type="passenger_trailer" id="210903_19_flow_A3O-A5N_passenger_trailer" probability="0.003182667164736646" begin="0" end="3599" departLane="best" departSpeed="max" />
    <flow route="A3O-A5N" type="bus" id="210903_19_flow_A3O-A5N_bus" probability="6.630556593201345e-05" begin="0" end="3599" departLane="best" departSpeed="max" />
    <flow route="A3O-A5N" type="truck" id="210903_19_flow_A3O-A5N_truck" probability="0.006895778856929399" begin="0" end="3599" departLane="best" departSpeed="max" />
    <flow route="A3O-A5N" type="truck_trailer" id="210903_19_flow_A3O-A5N_truck_trailer" probability="0.003381583862532686" begin="0" end="3599" departLane="best" departSpeed="max" />
    <flow route="A3O-A5N" type="semitrailer" id="210903_19_flow_A3O-A5N_semitrailer" probability="0.011802390735898395" begin="0" end="3599" departLane="best" departSpeed="max" />

    <flow route="A3O-A5S" type="passenger" id="210903_19_flow_A3O-A5S_passenger" probability="0.112340306313037" begin="0" end="3599" departLane="best" departSpeed="max" />
    <flow route="A3O-A5S" type="van" id="210903_19_flow_A3O-A5S_van" probability="0.014444236915286597" begin="0" end="3599" departLane="best" departSpeed="max" />
    <flow route="A3O-A5S" type="motorcycle" id="210903_19_flow_A3O-A5S_motorcycle" probability="0.0028076619765076997" begin="0" end="3599" departLane="best" departSpeed="max" />
    <flow route="A3O-A5S" type="passenger_misc" id="210903_19_flow_A3O-A5S_passenger_misc" probability="0.002198771427385548" begin="0" end="3599" departLane="best" departSpeed="max" />
    <flow route="A3O-A5S" type="passenger_trailer" id="210903_19_flow_A3O-A5S_passenger_trailer" probability="0.0016237081309924046" begin="0" end="3599" departLane="best" departSpeed="max" />
    <flow route="A3O-A5S" type="bus" id="210903_19_flow_A3O-A5S_bus" probability="3.382725272900843e-05" begin="0" end="3599" departLane="best" departSpeed="max" />
    <flow route="A3O-A5S" type="truck" id="210903_19_flow_A3O-A5S_truck" probability="0.003518034283816877" begin="0" end="3599" departLane="best" departSpeed="max" />
    <flow route="A3O-A5S" type="truck_trailer" id="210903_19_flow_A3O-A5S_truck_trailer" probability="0.00172518988917943" begin="0" end="3599" departLane="best" departSpeed="max" />
    <flow route="A3O-A5S" type="semitrailer" id="210903_19_flow_A3O-A5S_semitrailer" probability="0.0060212509857635" begin="0" end="3599" departLane="best" departSpeed="max" />

    <flow route="A3W-A3O" type="passenger" id="210903_19_flow_A3W-A3O_passenger" probability="0.6039193699105594" begin="0" end="3599" departLane="best" departSpeed="max" />
    <flow route="A3W-A3O" type="van" id="210903_19_flow_A3W-A3O_van" probability="0.07656120678147109" begin="0" end="3599" departLane="best" departSpeed="max" />
    <flow route="A3W-A3O" type="motorcycle" id="210903_19_flow_A3W-A3O_motorcycle" probability="0.003237662973345793" begin="0" end="3599" departLane="best" departSpeed="max" />
    <flow route="A3W-A3O" type="passenger_misc" id="210903_19_flow_A3W-A3O_passenger_misc" probability="0.00857028434120945" begin="0" end="3599" departLane="best" departSpeed="max" />
    <flow route="A3W-A3O" type="passenger_trailer" id="210903_19_flow_A3W-A3O_passenger_trailer" probability="0.007618030525519512" begin="0" end="3599" departLane="best" departSpeed="max" />
    <flow route="A3W-A3O" type="bus" id="210903_19_flow_A3W-A3O_bus" probability="0.003237662973345793" begin="0" end="3599" departLane="best" departSpeed="max" />
    <flow route="A3W-A3O" type="truck" id="210903_19_flow_A3W-A3O_truck" probability="0.02152093623459262" begin="0" end="3599" departLane="best" departSpeed="max" />
    <flow route="A3W-A3O" type="truck_trailer" id="210903_19_flow_A3W-A3O_truck_trailer" probability="0.014474257998487072" begin="0" end="3599" departLane="best" departSpeed="max" />
    <flow route="A3W-A3O" type="semitrailer" id="210903_19_flow_A3W-A3O_semitrailer" probability="0.04094691407466738" begin="0" end="3599" departLane="best" departSpeed="max" />

    <flow route="A3W-A5N" type="passenger" id="210903_19_flow_A3W-A5N_passenger" probability="0.12452309437992257" begin="0" end="3599" departLane="best" departSpeed="max" />
    <flow route="A3W-A5N" type="van" id="210903_19_flow_A3W-A5N_van" probability="0.01578627686557202" begin="0" end="3599" departLane="best" departSpeed="max" />
    <flow route="A3W-A5N" type="motorcycle" id="210903_19_flow_A3W-A5N_motorcycle" probability="0.0006675788724246873" begin="0" end="3599" departLane="best" departSpeed="max" />
    <flow route="A3W-A5N" type="passenger_misc" id="210903_19_flow_A3W-A5N_passenger_misc" probability="0.0017671205446535842" begin="0" end="3599" departLane="best" departSpeed="max" />
    <flow route="A3W-A5N" type="passenger_trailer" id="210903_19_flow_A3W-A5N_passenger_trailer" probability="0.0015707738174698526" begin="0" end="3599" departLane="best" departSpeed="max" />
    <flow route="A3W-A5N" type="bus" id="210903_19_flow_A3W-A5N_bus" probability="0.0006675788724246873" begin="0" end="3599" departLane="best" departSpeed="max" />
    <flow route="A3W-A5N" type="truck" id="210903_19_flow_A3W-A5N_truck" probability="0.004437436034352334" begin="0" end="3599" departLane="best" departSpeed="max" />
    <flow route="A3W-A5N" type="truck_trailer" id="210903_19_flow_A3W-A5N_truck_trailer" probability="0.00298447025319272" begin="0" end="3599" departLane="best" departSpeed="max" />
    <flow route="A3W-A5N" type="semitrailer" id="210903_19_flow_A3W-A5N_semitrailer" probability="0.008442909268900458" begin="0" end="3599" departLane="best" departSpeed="max" />

    <flow route="A3W-A5S" type="passenger" id="210903_19_flow_A3W-A5S_passenger" probability="0.15097984247763985" begin="0" end="3599" departLane="best" departSpeed="max" />
    <flow route="A3W-A5S" type="van" id="210903_19_flow_A3W-A5S_van" probability="0.019140301695367772" begin="0" end="3599" departLane="best" departSpeed="max" />
    <flow route="A3W-A5S" type="motorcycle" id="210903_19_flow_A3W-A5S_motorcycle" probability="0.0008094157433364482" begin="0" end="3599" departLane="best" departSpeed="max" />
    <flow route="A3W-A5S" type="passenger_misc" id="210903_19_flow_A3W-A5S_passenger_misc" probability="0.0021425710853023626" begin="0" end="3599" departLane="best" departSpeed="max" />
    <flow route="A3W-A5S" type="passenger_trailer" id="210903_19_flow_A3W-A5S_passenger_trailer" probability="0.001904507631379878" begin="0" end="3599" departLane="best" departSpeed="max" />
    <flow route="A3W-A5S" type="bus" id="210903_19_flow_A3W-A5S_bus" probability="0.0008094157433364482" begin="0" end="3599" departLane="best" departSpeed="max" />
    <flow route="A3W-A5S" type="truck" id="210903_19_flow_A3W-A5S_truck" probability="0.005380234058648155" begin="0" end="3599" departLane="best" departSpeed="max" />
    <flow route="A3W-A5S" type="truck_trailer" id="210903_19_flow_A3W-A5S_truck_trailer" probability="0.003618564499621768" begin="0" end="3599" departLane="best" departSpeed="max" />
    <flow route="A3W-A5S" type="semitrailer" id="210903_19_flow_A3W-A5S_semitrailer" probability="0.010236728518666844" begin="0" end="3599" departLane="best" departSpeed="max" />

    <flow route="A3W-B43W" type="passenger" id="210903_19_flow_A3W-B43W_passenger" probability="0.0014110265652115873" begin="0" end="3599" departLane="best" departSpeed="max" />
    <flow route="A3W-B43W" type="van" id="210903_19_flow_A3W-B43W_van" probability="0.00017888132425577358" begin="0" end="3599" departLane="best" departSpeed="max" />
    <flow route="A3W-B43W" type="motorcycle" id="210903_19_flow_A3W-B43W_motorcycle" probability="7.564633115293909e-06" begin="0" end="3599" departLane="best" departSpeed="max" />
    <flow route="A3W-B43W" type="passenger_misc" id="210903_19_flow_A3W-B43W_passenger_misc" probability="2.0024028834601522e-05" begin="0" end="3599" departLane="best" departSpeed="max" />
    <flow route="A3W-B43W" type="passenger_trailer" id="210903_19_flow_A3W-B43W_passenger_trailer" probability="1.779913674186802e-05" begin="0" end="3599" departLane="best" departSpeed="max" />
    <flow route="A3W-B43W" type="bus" id="210903_19_flow_A3W-B43W_bus" probability="7.564633115293909e-06" begin="0" end="3599" departLane="best" departSpeed="max" />
    <flow route="A3W-B43W" type="truck" id="210903_19_flow_A3W-B43W_truck" probability="5.0282561295777155e-05" begin="0" end="3599" departLane="best" departSpeed="max" />
    <flow route="A3W-B43W" type="truck_trailer" id="210903_19_flow_A3W-B43W_truck_trailer" probability="3.3818359809549235e-05" begin="0" end="3599" departLane="best" departSpeed="max" />
    <flow route="A3W-B43W" type="semitrailer" id="210903_19_flow_A3W-B43W_semitrailer" probability="9.567035998754061e-05" begin="0" end="3599" departLane="best" departSpeed="max" />

    <flow route="A5N-A5N" type="passenger" id="210903_19_flow_A5N-A5N_passenger" probability="0.023959182943407025" begin="0" end="3599" departLane="best" departSpeed="max" />
    <flow route="A5N-A5N" type="van" id="210903_19_flow_A5N-A5N_van" probability="0.002450812048365171" begin="0" end="3599" departLane="best" departSpeed="max" />
    <flow route="A5N-A5N" type="motorcycle" id="210903_19_flow_A5N-A5N_motorcycle" probability="0.0004158617729126422" begin="0" end="3599" departLane="best" departSpeed="max" />
    <flow route="A5N-A5N" type="passenger_misc" id="210903_19_flow_A5N-A5N_passenger_misc" probability="0.0005711168348000287" begin="0" end="3599" departLane="best" departSpeed="max" />
    <flow route="A5N-A5N" type="passenger_trailer" id="210903_19_flow_A5N-A5N_passenger_trailer" probability="0.00019961365099806827" begin="0" end="3599" departLane="best" departSpeed="max" />
    <flow route="A5N-A5N" type="bus" id="210903_19_flow_A5N-A5N_bus" probability="3.3268941833011375e-05" begin="0" end="3599" departLane="best" departSpeed="max" />
    <flow route="A5N-A5N" type="truck" id="210903_19_flow_A5N-A5N_truck" probability="0.0004990341274951705" begin="0" end="3599" departLane="best" departSpeed="max" />
    <flow route="A5N-A5N" type="truck_trailer" id="210903_19_flow_A5N-A5N_truck_trailer" probability="0.0001330757673320455" begin="0" end="3599" departLane="best" departSpeed="max" />
    <flow route="A5N-A5N" type="semitrailer" id="210903_19_flow_A5N-A5N_semitrailer" probability="0.0007097374257709093" begin="0" end="3599" departLane="best" departSpeed="max" />

    <flow route="A5N-A3O" type="passenger" id="210903_19_flow_A5N-A3O_passenger" probability="0.17698880303355513" begin="0" end="3599" departLane="best" departSpeed="max" />
    <flow route="A5N-A3O" type="van" id="210903_19_flow_A5N-A3O_van" probability="0.01810438577663304" begin="0" end="3599" departLane="best" departSpeed="max" />
    <flow route="A5N-A3O" type="motorcycle" id="210903_19_flow_A5N-A3O_motorcycle" probability="0.003072011161193389" begin="0" end="3599" departLane="best" departSpeed="max" />
    <flow route="A5N-A3O" type="passenger_misc" id="210903_19_flow_A5N-A3O_passenger_misc" probability="0.004218895328038921" begin="0" end="3599" departLane="best" departSpeed="max" />
    <flow route="A5N-A3O" type="passenger_trailer" id="210903_19_flow_A5N-A3O_passenger_trailer" probability="0.0014745653573728266" begin="0" end="3599" departLane="best" departSpeed="max" />
    <flow route="A5N-A3O" type="bus" id="210903_19_flow_A5N-A3O_bus" probability="0.00024576089289547113" begin="0" end="3599" departLane="best" departSpeed="max" />
    <flow route="A5N-A3O" type="truck" id="210903_19_flow_A5N-A3O_truck" probability="0.003686413393432067" begin="0" end="3599" departLane="best" departSpeed="max" />
    <flow route="A5N-A3O" type="truck_trailer" id="210903_19_flow_A5N-A3O_truck_trailer" probability="0.0009830435715818845" begin="0" end="3599" departLane="best" departSpeed="max" />
    <flow route="A5N-A3O" type="semitrailer" id="210903_19_flow_A5N-A3O_semitrailer" probability="0.005242899048436718" begin="0" end="3599" departLane="best" departSpeed="max" />

    <flow route="A5N-A3W" type="passenger" id="210903_19_flow_A5N-A3W_passenger" probability="0.1684871574729913" begin="0" end="3599" departLane="best" departSpeed="max" />
    <flow route="A5N-A3W" type="van" id="210903_19_flow_A5N-A3W_van" probability="0.01723474279172927" begin="0" end="3599" departLane="best" departSpeed="max" />
    <flow route="A5N-A3W" type="motorcycle" id="210903_19_flow_A5N-A3W_motorcycle" probability="0.002924447306288903" begin="0" end="3599" departLane="best" departSpeed="max" />
    <flow route="A5N-A3W" type="passenger_misc" id="210903_19_flow_A5N-A3W_passenger_misc" probability="0.0040162409673034265" begin="0" end="3599" departLane="best" departSpeed="max" />
    <flow route="A5N-A3W" type="passenger_trailer" id="210903_19_flow_A5N-A3W_passenger_trailer" probability="0.0014037347070186734" begin="0" end="3599" departLane="best" departSpeed="max" />
    <flow route="A5N-A3W" type="bus" id="210903_19_flow_A5N-A3W_bus" probability="0.00023395578450311223" begin="0" end="3599" departLane="best" departSpeed="max" />
    <flow route="A5N-A3W" type="truck" id="210903_19_flow_A5N-A3W_truck" probability="0.0035093367675466834" begin="0" end="3599" departLane="best" departSpeed="max" />
    <flow route="A5N-A3W" type="truck_trailer" id="210903_19_flow_A5N-A3W_truck_trailer" probability="0.0009358231380124489" begin="0" end="3599" departLane="best" departSpeed="max" />
    <flow route="A5N-A3W" type="semitrailer" id="210903_19_flow_A5N-A3W_semitrailer" probability="0.004991056736066394" begin="0" end="3599" departLane="best" departSpeed="max" />

    <flow route="A5N-A5S" type="passenger" id="210903_19_flow_A5N-A5S_passenger" probability="0.6569453387708378" begin="0" end="3599" departLane="best" departSpeed="max" />
    <flow route="A5N-A5S" type="van" id="210903_19_flow_A5N-A5S_van" probability="0.06719968519710953" begin="0" end="3599" departLane="best" departSpeed="max" />
    <flow route="A5N-A5S" type="motorcycle" id="210903_19_flow_A5N-A5S_motorcycle" probability="0.011402661515346642" begin="0" end="3599" departLane="best" departSpeed="max" />
    <flow route="A5N-A5S" type="passenger_misc" id="210903_19_flow_A5N-A5S_passenger_misc" probability="0.015659655147742722" begin="0" end="3599" departLane="best" departSpeed="max" />
    <flow route="A5N-A5S" type="passenger_trailer" id="210903_19_flow_A5N-A5S_passenger_trailer" probability="0.005473277527366388" begin="0" end="3599" departLane="best" departSpeed="max" />
    <flow route="A5N-A5S" type="bus" id="210903_19_flow_A5N-A5S_bus" probability="0.0009122129212277313" begin="0" end="3599" departLane="best" departSpeed="max" />
    <flow route="A5N-A5S" type="truck" id="210903_19_flow_A5N-A5S_truck" probability="0.01368319381841597" begin="0" end="3599" departLane="best" departSpeed="max" />
    <flow route="A5N-A5S" type="truck_trailer" id="210903_19_flow_A5N-A5S_truck_trailer" probability="0.003648851684910925" begin="0" end="3599" departLane="best" departSpeed="max" />
    <flow route="A5N-A5S" type="semitrailer" id="210903_19_flow_A5N-A5S_semitrailer" probability="0.019460542319524935" begin="0" end="3599" departLane="best" departSpeed="max" />

    <flow route="A5N-B43W" type="passenger" id="210903_19_flow_A5N-B43W_passenger" probability="0.1738972955569865" begin="0" end="3599" departLane="best" departSpeed="max" />
    <flow route="A5N-B43W" type="van" id="210903_19_flow_A5N-B43W_van" probability="0.017788151963940763" begin="0" end="3599" departLane="best" departSpeed="max" />
    <flow route="A5N-B43W" type="motorcycle" id="210903_19_flow_A5N-B43W_motorcycle" probability="0.003018351577591758" begin="0" end="3599" departLane="best" departSpeed="max" />
    <flow route="A5N-B43W" type="passenger_misc" id="210903_19_flow_A5N-B43W_passenger_misc" probability="0.004145202833226014" begin="0" end="3599" departLane="best" departSpeed="max" />
    <flow route="A5N-B43W" type="passenger_trailer" id="210903_19_flow_A5N-B43W_passenger_trailer" probability="0.001448808757244044" begin="0" end="3599" departLane="best" departSpeed="max" />
    <flow route="A5N-B43W" type="bus" id="210903_19_flow_A5N-B43W_bus" probability="0.00024146812620734064" begin="0" end="3599" departLane="best" departSpeed="max" />
    <flow route="A5N-B43W" type="truck" id="210903_19_flow_A5N-B43W_truck" probability="0.0036220218931101097" begin="0" end="3599" departLane="best" departSpeed="max" />
    <flow route="A5N-B43W" type="truck_trailer" id="210903_19_flow_A5N-B43W_truck_trailer" probability="0.0009658725048293626" begin="0" end="3599" departLane="best" departSpeed="max" />
    <flow route="A5N-B43W" type="semitrailer" id="210903_19_flow_A5N-B43W_semitrailer" probability="0.005151320025756601" begin="0" end="3599" departLane="best" departSpeed="max" />

    <flow route="A5S-A3O" type="passenger" id="210903_19_flow_A5S-A3O_passenger" probability="0.21820395738203957" begin="0" end="3599" departLane="best" departSpeed="max" />
    <flow route="A5S-A3O" type="van" id="210903_19_flow_A5S-A3O_van" probability="0.020882800608828005" begin="0" end="3599" departLane="best" departSpeed="max" />
    <flow route="A5S-A3O" type="motorcycle" id="210903_19_flow_A5S-A3O_motorcycle" probability="0.0020243531202435313" begin="0" end="3599" departLane="best" departSpeed="max" />
    <flow route="A5S-A3O" type="passenger_misc" id="210903_19_flow_A5S-A3O_passenger_misc" probability="0.0027168949771689496" begin="0" end="3599" departLane="best" departSpeed="max" />
    <flow route="A5S-A3O" type="passenger_trailer" id="210903_19_flow_A5S-A3O_passenger_trailer" probability="0.0016514459665144597" begin="0" end="3599" departLane="best" departSpeed="max" />
    <flow route="A5S-A3O" type="bus" id="210903_19_flow_A5S-A3O_bus" probability="0.000532724505327245" begin="0" end="3599" departLane="best" departSpeed="max" />
    <flow route="A5S-A3O" type="truck" id="210903_19_flow_A5S-A3O_truck" probability="0.005273972602739726" begin="0" end="3599" departLane="best" departSpeed="max" />
    <flow route="A5S-A3O" type="truck_trailer" id="210903_19_flow_A5S-A3O_truck_trailer" probability="0.003356164383561644" begin="0" end="3599" departLane="best" departSpeed="max" />
    <flow route="A5S-A3O" type="semitrailer" id="210903_19_flow_A5S-A3O_semitrailer" probability="0.009855403348554033" begin="0" end="3599" departLane="best" departSpeed="max" />

    <flow route="A5S-A3W" type="passenger" id="210903_19_flow_A5S-A3W_passenger" probability="0.09871131405377981" begin="0" end="3599" departLane="best" departSpeed="max" />
    <flow route="A5S-A3W" type="van" id="210903_19_flow_A5S-A3W_van" probability="0.009446981227803145" begin="0" end="3599" departLane="best" departSpeed="max" />
    <flow route="A5S-A3W" type="motorcycle" id="210903_19_flow_A5S-A3W_motorcycle" probability="0.0009157787924911211" begin="0" end="3599" departLane="best" departSpeed="max" />
    <flow route="A5S-A3W" type="passenger_misc" id="210903_19_flow_A5S-A3W_passenger_misc" probability="0.0012290715372907152" begin="0" end="3599" departLane="best" departSpeed="max" />
    <flow route="A5S-A3W" type="passenger_trailer" id="210903_19_flow_A5S-A3W_passenger_trailer" probability="0.0007470826991374936" begin="0" end="3599" departLane="best" departSpeed="max" />
    <flow route="A5S-A3W" type="bus" id="210903_19_flow_A5S-A3W_bus" probability="0.00024099441907661083" begin="0" end="3599" departLane="best" departSpeed="max" />
    <flow route="A5S-A3W" type="truck" id="210903_19_flow_A5S-A3W_truck" probability="0.0023858447488584473" begin="0" end="3599" departLane="best" departSpeed="max" />
    <flow route="A5S-A3W" type="truck_trailer" id="210903_19_flow_A5S-A3W_truck_trailer" probability="0.0015182648401826484" begin="0" end="3599" departLane="best" departSpeed="max" />