<?xml version="1.0" encoding="UTF-8"?>

<routes xmlns:xsi="http://www.w3.org/2001/XMLSchema-instance" xsi:noNamespaceSchemaLocation="http://sumo.dlr.de/xsd/routes_file.xsd">

    <!--
        truck, semitrailer and truck_trailer size calculated by using inner size from [0]
        and adding 2m length and 1m height according to [1]

        [0] https://www.alpensped.de/leistungen/fuhrpark/
        [1] https://www.wuerth-transporte.de/1.html
    -->
    <vType id="motorcycle" vClass="motorcycle" lcStrategic="0.75" lcCooperative="0.7" lcLookaheadLeft="0.7" lcPushy="0.2" lcAssertive="1.5" lcSigma="0.2" />
    <vType id="passenger" vClass="passenger" lcStrategic="0.75" lcCooperative="0.7" lcLookaheadLeft="0.7" lcPushy="0.2" lcAssertive="1.5" lcSigma="0.2" />
    <vType id="passenger_misc" vClass="passenger" lcStrategic="0.75" lcCooperative="0.7" lcLookaheadLeft="0.7" lcPushy="0.2" lcAssertive="1.5" lcSigma="0.2" />
    <vType id="van" vClass="passenger" guiShape="passenger/van" length="4.7" width="1.9" height="1.73" lcStrategic="0.75" lcCooperative="0.7" lcLookaheadLeft="0.7" lcPushy="0.2" lcAssertive="1.5" lcSigma="0.2" />
    <vType id="passenger_trailer" vClass="passenger" length="7.5" width="2" height="2.2" lcStrategic="0.75" lcCooperative="0.7" lcLookaheadLeft="0.7" lcPushy="0.2" lcAssertive="1.5" lcSigma="0.2" />
    <vType id="truck" vClass="truck" length="9" width="2.45" height="3.6" maxSpeed="22.22" lcStrategic="0.75" lcCooperative="0.7" lcLookaheadLeft="0.7" lcPushy="0.2" lcAssertive="1.5" lcSigma="0.2" lcKeepRight="100" lcSpeedGain="0.1" />
    <vType id="semitrailer" vClass="truck" guiShape="truck/semitrailer" length="15.6" width="2.5" height="4.04" maxSpeed="22.22" lcStrategic="0.75" lcCooperative="0.7" lcLookaheadLeft="0.7" lcPushy="0.2" lcAssertive="1.5" lcSigma="0.2" lcKeepRight="100" lcSpeedGain="0.1" />
    <vType id="truck_trailer" vClass="truck" guiShape="truck/trailer" length="17.6" width="2.5" height="4.20" maxSpeed="22.22" lcStrategic="0.75" lcCooperative="0.7" lcLookaheadLeft="0.7" lcPushy="0.2" lcAssertive="1.5" lcSigma="0.2" lcKeepRight="100" lcSpeedGain="0.1" />
    <vType id="bus" vClass="bus" maxSpeed="22.22" lcStrategic="0.75" lcCooperative="0.7" lcLookaheadLeft="0.7" lcPushy="0.2" lcAssertive="1.5" lcSigma="0.2" lcKeepRight="100" lcSpeedGain="0.1" />

    <route edges="3993621 3993622" color="yellow" id="A3O-A3W" />
    <route edges="3993621 4488572 387746873 153320423 132979567 23286294 4488573 419865347 4488587 234004932 4488588 39175423" color="yellow" id="A3O-A3W-alt" />
    <route edges="3993621 4488572 387746873 153320423 132979567 20437071 4780826 132979549 23286356 23286447 A5N1" color="yellow" id="A3O-A5N" />
    <route edges="3993621 4488572 387746873 153320423 132979567 23286294 4488573 4488575 4488577 23286237 481371695 236522916 A5S2" color="yellow" id="A3O-A5S" />
    <route edges="133039111 4728785 37976720 152367113 307216717 3993482 153261740 153261739 3993501" color="yellow" id="A3W-A3O" />
    <route edges="133039111 20644480 108035020 228932147 4728850 387746860 20630373 4893840 234004960 387746834 4488560#0 4488560#1 387746832 4488561 26529486 387746829#1 132979552 A5N1" color="yellow" id="A3W-A5N" />
    <route edges="133039111 20644480 108035020 228932147 4728850 387746860 4488582 228932146 481371695 236522916 A5S2" color="yellow" id="A3W-A5S" />
    <route edges="133039111 20644480 108035020 228932147 4728850 387746860 20630373 4893840 234004960 387746834 4488560#0 4488560#1 387746832 4488561 26529486 387746829#1 4488569#0 4488569#1 4743817 419865353 152377568 152377560 152377574#1 234004943 38238212" color="yellow" id="A3W-B43W" />
    <route edges="A5N2 358653882-AddedOffRampEdge 321554750 387746861 75436542 23286376 4488583 4488577 20630094 4893840 234004960 387746834 4488560#0 4488560#1 387746832 4488561 26529486 387746829#1 132979552 A5N1" color="yellow" id="A5N-A5N" />
    <route edges="A5N2 358653882-AddedOffRampEdge 321554750 387746861 75436542 23286376 4488583 4488577 20630094 4893840 234004960 387746818 23286266 4488571 307213473 307216717 3993482 153261740 153261739 3993501" color="yellow" id="A5N-A3O" />
    <route edges="A5N2 358653882-AddedOffRampEdge 321554750 387746861 75436542 23286376 4488585#0 4488585#1 4488588 39175423" color="yellow" id="A5N-A3W" />
    <route edges="A5N2 358653882-AddedOffRampEdge 23286357 23286423 23286426 A5S2" color="yellow" id="A5N-A5S" />
    <route edges="A5N2 358653882-AddedOffRampEdge 321554750 4488594 419865353 152377568 152377560 152377574#1 234004943 38238212" color="yellow" id="A5N-B43W" />
    <route edges="A5S1 4488554 39175135 387746811 156265645 23286275 4488571 307213473 307216717 3993482 153261740 153261739 3993501" color="yellow" id="A5S-A3O" />
    <route edges="A5S1 4488554 20629597 387746862 132979565 4488561 387746825 4488563 4488573 419865347 4488587 234004932 4488588 39175423" color="yellow" id="A5S-A3W" />
    <route edges="A5S1 23286478 23286356 23286447 A5N1" color="yellow" id="A5S-A5N" />
    <route edges="A5S1 4488554 20629597 387746862 132979565 4488561 26529486 387746829#1 132979552 A5N1" color="yellow" id="A5S-A5N-alt" />
    <route edges="A5S1 4488554 20629597 387746862 132979565 4488561 26529486 387746829#1 4488569#0 4488569#1 4743817 419865353 152377568 152377560 152377574#1 234004943 38238212" color="yellow" id="A5S-B43W" />
    <route edges="23337333 4746513 23337441 4743817 419865353 152377568 152377560 152377574#1 234004943 38238212" color="yellow" id="B43O-B43W" />
    <route edges="89837133 152303549 433450247 45781803 152377567 152377561 152446429 49203928 387746833 4780826 132979549 23286356 23286447 A5N1" color="yellow" id="B43W-A5N" />
    <route edges="89837133 152303549 433450247 45781803 152377567 152377561 152446429 4488584#0 4488584#1 23286423 23286426 A5S2" color="yellow" id="B43W-A5S" />
    <route edges="89837133 152303549 433450247 45781803 152377567 152377561 152446429 49203928 4743818 23337443 4746512" color="yellow" id="B43W-B43O" />

    <!--
        Flows generated by bast2scenario-tool.
        Reference file: "../ffk-reference/frankfurter-kreuz-ref.rou.xml"
        Date: 210903
        Hour: 1
        Warmup: 400
    -->

    <flow route="A3O-A3W" type="passenger" id="210903_01_flow_A3O-A3W_passenger" probability="0.05096656705267089971" begin="0" end="3999" departLane="best" departSpeed="max" />
    <flow route="A3O-A3W" type="van" id="210903_01_flow_A3O-A3W_van" probability="0.01224422031295397013" begin="0" end="3999" departLane="best" departSpeed="max" />
    <flow route="A3O-A3W" type="motorcycle" id="210903_01_flow_A3O-A3W_motorcycle" probability="0.00107136927738347228" begin="0" end="3999" departLane="best" departSpeed="max" />
    <flow route="A3O-A3W" type="passenger_misc" id="210903_01_flow_A3O-A3W_passenger_misc" probability="0.00137747478520732175" begin="0" end="3999" departLane="best" departSpeed="max" />
    <flow route="A3O-A3W" type="passenger_trailer" id="210903_01_flow_A3O-A3W_passenger_trailer" probability="0.00107136927738347228" begin="0" end="3999" departLane="best" departSpeed="max" />
    <flow route="A3O-A3W" type="bus" id="210903_01_flow_A3O-A3W_bus" probability="0.00030610550782384925" begin="0" end="3999" departLane="best" departSpeed="max" />
    <flow route="A3O-A3W" type="truck" id="210903_01_flow_A3O-A3W_truck" probability="0.00857095421906777823" begin="0" end="3999" departLane="best" departSpeed="max" />
    <flow route="A3O-A3W" type="truck_trailer" id="210903_01_flow_A3O-A3W_truck_trailer" probability="0.01423390611380898930" begin="0" end="3999" departLane="best" departSpeed="max" />
    <flow route="A3O-A3W" type="semitrailer" id="210903_01_flow_A3O-A3W_semitrailer" probability="0.02081517453202174836" begin="0" end="3999" departLane="best" departSpeed="max" />

    <flow route="A3O-A3W-alt" type="passenger" id="210903_01_flow_A3O-A3W-alt_passenger" probability="0.00818920433320881672" begin="0" end="3999" departLane="best" departSpeed="max" />
    <flow route="A3O-A3W-alt" type="van" id="210903_01_flow_A3O-A3W-alt_van" probability="0.00196737641638650238" begin="0" end="3999" departLane="best" departSpeed="max" />
    <flow route="A3O-A3W-alt" type="motorcycle" id="210903_01_flow_A3O-A3W-alt_motorcycle" probability="0.00017214543643381895" begin="0" end="3999" departLane="best" departSpeed="max" />
    <flow route="A3O-A3W-alt" type="passenger_misc" id="210903_01_flow_A3O-A3W-alt_passenger_misc" probability="0.00022132984684348152" begin="0" end="3999" departLane="best" departSpeed="max" />
    <flow route="A3O-A3W-alt" type="passenger_trailer" id="210903_01_flow_A3O-A3W-alt_passenger_trailer" probability="0.00017214543643381895" begin="0" end="3999" departLane="best" departSpeed="max" />
    <flow route="A3O-A3W-alt" type="bus" id="210903_01_flow_A3O-A3W-alt_bus" probability="0.00004918441040966256" begin="0" end="3999" departLane="best" departSpeed="max" />
    <flow route="A3O-A3W-alt" type="truck" id="210903_01_flow_A3O-A3W-alt_truck" probability="0.00137716349147055158" begin="0" end="3999" departLane="best" departSpeed="max" />
    <flow route="A3O-A3W-alt" type="truck_trailer" id="210903_01_flow_A3O-A3W-alt_truck_trailer" probability="0.00228707508404930870" begin="0" end="3999" departLane="best" departSpeed="max" />
    <flow route="A3O-A3W-alt" type="semitrailer" id="210903_01_flow_A3O-A3W-alt_semitrailer" probability="0.00334453990785705396" begin="0" end="3999" departLane="best" departSpeed="max" />

    <flow route="A3O-A5N" type="passenger" id="210903_01_flow_A3O-A5N_passenger" probability="0.02207975345536047559" begin="0" end="3999" departLane="best" departSpeed="max" />
    <flow route="A3O-A5N" type="van" id="210903_01_flow_A3O-A5N_van" probability="0.00530444527456107578" begin="0" end="3999" departLane="best" departSpeed="max" />
    <flow route="A3O-A5N" type="motorcycle" id="210903_01_flow_A3O-A5N_motorcycle" probability="0.00046413896152409418" begin="0" end="3999" departLane="best" departSpeed="max" />
    <flow route="A3O-A5N" type="passenger_misc" id="210903_01_flow_A3O-A5N_passenger_misc" probability="0.00059675009338812108" begin="0" end="3999" departLane="best" departSpeed="max" />
    <flow route="A3O-A5N" type="passenger_trailer" id="210903_01_flow_A3O-A5N_passenger_trailer" probability="0.00046413896152409418" begin="0" end="3999" departLane="best" departSpeed="max" />
    <flow route="A3O-A5N" type="bus" id="210903_01_flow_A3O-A5N_bus" probability="0.00013261113186402689" begin="0" end="3999" departLane="best" departSpeed="max" />
    <flow route="A3O-A5N" type="truck" id="210903_01_flow_A3O-A5N_truck" probability="0.00371311169219275348" begin="0" end="3999" departLane="best" departSpeed="max" />
    <flow route="A3O-A5N" type="truck_trailer" id="210903_01_flow_A3O-A5N_truck_trailer" probability="0.00616641763167725086" begin="0" end="3999" departLane="best" departSpeed="max" />
    <flow route="A3O-A5N" type="semitrailer" id="210903_01_flow_A3O-A5N_semitrailer" probability="0.00901755696675382926" begin="0" end="3999" departLane="best" departSpeed="max" />

    <flow route="A3O-A5S" type="passenger" id="210903_01_flow_A3O-A5S_passenger" probability="0.01126447515875980687" begin="0" end="3999" departLane="best" departSpeed="max" />
    <flow route="A3O-A5S" type="van" id="210903_01_flow_A3O-A5S_van" probability="0.00270618021832067434" begin="0" end="3999" departLane="best" departSpeed="max" />
    <flow route="A3O-A5S" type="motorcycle" id="210903_01_flow_A3O-A5S_motorcycle" probability="0.00023679076910305898" begin="0" end="3999" departLane="best" departSpeed="max" />
    <flow route="A3O-A5S" type="passenger_misc" id="210903_01_flow_A3O-A5S_passenger_misc" probability="0.00030444527456107584" begin="0" end="3999" departLane="best" departSpeed="max" />
    <flow route="A3O-A5S" type="passenger_trailer" id="210903_01_flow_A3O-A5S_passenger_trailer" probability="0.00023679076910305898" begin="0" end="3999" departLane="best" departSpeed="max" />
    <flow route="A3O-A5S" type="bus" id="210903_01_flow_A3O-A5S_bus" probability="0.00006765450545801686" begin="0" end="3999" departLane="best" departSpeed="max" />
    <flow route="A3O-A5S" type="truck" id="210903_01_flow_A3O-A5S_truck" probability="0.00189432615282447182" begin="0" end="3999" departLane="best" departSpeed="max" />
    <flow route="A3O-A5S" type="truck_trailer" id="210903_01_flow_A3O-A5S_truck_trailer" probability="0.00314593450379778341" begin="0" end="3999" departLane="best" departSpeed="max" />
    <flow route="A3O-A5S" type="semitrailer" id="210903_01_flow_A3O-A5S_semitrailer" probability="0.00460050637114514573" begin="0" end="3999" departLane="best" departSpeed="max" />

    <flow route="A3W-A3O" type="passenger" id="210903_01_flow_A3W-A3O_passenger" probability="0.07675165754460909484" begin="0" end="3999" departLane="best" departSpeed="max" />
    <flow route="A3W-A3O" type="van" id="210903_01_flow_A3W-A3O_van" probability="0.01314110265652115861" begin="0" end="3999" departLane="best" departSpeed="max" />
    <flow route="A3W-A3O" type="motorcycle" id="210903_01_flow_A3W-A3O_motorcycle" probability="0.00133315534196591450" begin="0" end="3999" departLane="best" departSpeed="max" />
    <flow route="A3W-A3O" type="passenger_misc" id="210903_01_flow_A3W-A3O_passenger_misc" probability="0.00209495839451786592" begin="0" end="3999" departLane="best" departSpeed="max" />
    <flow route="A3W-A3O" type="passenger_trailer" id="210903_01_flow_A3W-A3O_passenger_trailer" probability="0.00247585992079384174" begin="0" end="3999" departLane="best" departSpeed="max" />
    <flow route="A3W-A3O" type="bus" id="210903_01_flow_A3W-A3O_bus" probability="0.00038090152627597560" begin="0" end="3999" departLane="best" departSpeed="max" />
    <flow route="A3W-A3O" type="truck" id="210903_01_flow_A3W-A3O_truck" probability="0.00742757976238152436" begin="0" end="3999" departLane="best" departSpeed="max" />
    <flow route="A3W-A3O" type="truck_trailer" id="210903_01_flow_A3W-A3O_truck_trailer" probability="0.01256975036710719466" begin="0" end="3999" departLane="best" departSpeed="max" />
    <flow route="A3W-A3O" type="semitrailer" id="210903_01_flow_A3W-A3O_semitrailer" probability="0.03199572820718195321" begin="0" end="3999" departLane="best" departSpeed="max" />

    <flow route="A3W-A5N" type="passenger" id="210903_01_flow_A3W-A5N_passenger" probability="0.01582554621100876538" begin="0" end="3999" departLane="best" departSpeed="max" />
    <flow route="A3W-A5N" type="van" id="210903_01_flow_A3W-A5N_van" probability="0.00270958483513549560" begin="0" end="3999" departLane="best" departSpeed="max" />
    <flow route="A3W-A5N" type="motorcycle" id="210903_01_flow_A3W-A5N_motorcycle" probability="0.00027488541805722420" begin="0" end="3999" departLane="best" departSpeed="max" />
    <flow route="A3W-A5N" type="passenger_misc" id="210903_01_flow_A3W-A5N_passenger_misc" probability="0.00043196279980420944" begin="0" end="3999" departLane="best" departSpeed="max" />
    <flow route="A3W-A5N" type="passenger_trailer" id="210903_01_flow_A3W-A5N_passenger_trailer" probability="0.00051050149067770215" begin="0" end="3999" departLane="best" departSpeed="max" />
    <flow route="A3W-A5N" type="bus" id="210903_01_flow_A3W-A5N_bus" probability="0.00007853869087349264" begin="0" end="3999" departLane="best" departSpeed="max" />
    <flow route="A3W-A5N" type="truck" id="210903_01_flow_A3W-A5N_truck" probability="0.00153150447203310633" begin="0" end="3999" departLane="best" departSpeed="max" />
    <flow route="A3W-A5N" type="truck_trailer" id="210903_01_flow_A3W-A5N_truck_trailer" probability="0.00259177679882525687" begin="0" end="3999" departLane="best" departSpeed="max" />
    <flow route="A3W-A5N" type="semitrailer" id="210903_01_flow_A3W-A5N_semitrailer" probability="0.00659725003337338113" begin="0" end="3999" departLane="best" departSpeed="max" />

    <flow route="A3W-A5S" type="passenger" id="210903_01_flow_A3W-A5S_passenger" probability="0.01918791438615227371" begin="0" end="3999" departLane="best" departSpeed="max" />
    <flow route="A3W-A5S" type="van" id="210903_01_flow_A3W-A5S_van" probability="0.00328527566413028965" begin="0" end="3999" departLane="best" departSpeed="max" />
    <flow route="A3W-A5S" type="motorcycle" id="210903_01_flow_A3W-A5S_motorcycle" probability="0.00033328883549147863" begin="0" end="3999" departLane="best" departSpeed="max" />
    <flow route="A3W-A5S" type="passenger_misc" id="210903_01_flow_A3W-A5S_passenger_misc" probability="0.00052373959862946648" begin="0" end="3999" departLane="best" departSpeed="max" />
    <flow route="A3W-A5S" type="passenger_trailer" id="210903_01_flow_A3W-A5S_passenger_trailer" probability="0.00061896498019846044" begin="0" end="3999" departLane="best" departSpeed="max" />
    <flow route="A3W-A5S" type="bus" id="210903_01_flow_A3W-A5S_bus" probability="0.00009522538156899390" begin="0" end="3999" departLane="best" departSpeed="max" />
    <flow route="A3W-A5S" type="truck" id="210903_01_flow_A3W-A5S_truck" probability="0.00185689494059538109" begin="0" end="3999" departLane="best" departSpeed="max" />
    <flow route="A3W-A5S" type="truck_trailer" id="210903_01_flow_A3W-A5S_truck_trailer" probability="0.00314243759177679867" begin="0" end="3999" departLane="best" departSpeed="max" />
    <flow route="A3W-A5S" type="semitrailer" id="210903_01_flow_A3W-A5S_semitrailer" probability="0.00799893205179548830" begin="0" end="3999" departLane="best" departSpeed="max" />

    <flow route="A3W-B43W" type="passenger" id="210903_01_flow_A3W-B43W_passenger" probability="0.00017932630267432028" begin="0" end="3999" departLane="best" departSpeed="max" />
    <flow route="A3W-B43W" type="van" id="210903_01_flow_A3W-B43W_van" probability="0.00003070351087972234" begin="0" end="3999" departLane="best" departSpeed="max" />
    <flow route="A3W-B43W" type="motorcycle" id="210903_01_flow_A3W-B43W_motorcycle" probability="0.00000311484892982690" begin="0" end="3999" departLane="best" departSpeed="max" />
    <flow route="A3W-B43W" type="passenger_misc" id="210903_01_flow_A3W-B43W_passenger_misc" probability="0.00000489476260401370" begin="0" end="3999" departLane="best" departSpeed="max" />
    <flow route="A3W-B43W" type="passenger_trailer" id="210903_01_flow_A3W-B43W_passenger_trailer" probability="0.00000578471944110711" begin="0" end="3999" departLane="best" departSpeed="max" />
    <flow route="A3W-B43W" type="bus" id="210903_01_flow_A3W-B43W_bus" probability="0.00000088995683709340" begin="0" end="3999" departLane="best" departSpeed="max" />
    <flow route="A3W-B43W" type="truck" id="210903_01_flow_A3W-B43W_truck" probability="0.00001735415832332132" begin="0" end="3999" departLane="best" departSpeed="max" />
    <flow route="A3W-B43W" type="truck_trailer" id="210903_01_flow_A3W-B43W_truck_trailer" probability="0.00002936857562408223" begin="0" end="3999" departLane="best" departSpeed="max" />
    <flow route="A3W-B43W" type="semitrailer" id="210903_01_flow_A3W-B43W_semitrailer" probability="0.00007475637431584568" begin="0" end="3999" departLane="best" departSpeed="max" />

    <flow route="A5N-A5N" type="passenger" id="210903_01_flow_A5N-A5N_passenger" probability="0.00227337769192244386" begin="0" end="3999" departLane="best" departSpeed="max" />
    <flow route="A5N-A5N" type="van" id="210903_01_flow_A5N-A5N_van" probability="0.00053230306932818201" begin="0" end="3999" departLane="best" departSpeed="max" />
    <flow route="A5N-A5N" type="motorcycle" id="210903_01_flow_A5N-A5N_motorcycle" probability="0.00004435858911068183" begin="0" end="3999" departLane="best" departSpeed="max" />
    <flow route="A5N-A5N" type="passenger_misc" id="210903_01_flow_A5N-A5N_passenger_misc" probability="0.00009980682549903413" begin="0" end="3999" departLane="best" departSpeed="max" />
    <flow route="A5N-A5N" type="passenger_trailer" id="210903_01_flow_A5N-A5N_passenger_trailer" probability="0.00004990341274951707" begin="0" end="3999" departLane="best" departSpeed="max" />
    <flow route="A5N-A5N" type="bus" id="210903_01_flow_A5N-A5N_bus" probability="0.00001108964727767046" begin="0" end="3999" departLane="best" departSpeed="max" />
    <flow route="A5N-A5N" type="truck" id="210903_01_flow_A5N-A5N_truck" probability="0.00027169635830292621" begin="0" end="3999" departLane="best" departSpeed="max" />
    <flow route="A5N-A5N" type="truck_trailer" id="210903_01_flow_A5N-A5N_truck_trailer" probability="0.00046576518566215924" begin="0" end="3999" departLane="best" departSpeed="max" />
    <flow route="A5N-A5N" type="semitrailer" id="210903_01_flow_A5N-A5N_semitrailer" probability="0.00059329612935536940" begin="0" end="3999" departLane="best" departSpeed="max" />

    <flow route="A5N-A3O" type="passenger" id="210903_01_flow_A5N-A3O_passenger" probability="0.01679366101452386267" begin="0" end="3999" departLane="best" departSpeed="max" />
    <flow route="A5N-A3O" type="van" id="210903_01_flow_A5N-A3O_van" probability="0.00393217428632753815" begin="0" end="3999" departLane="best" departSpeed="max" />
    <flow route="A5N-A3O" type="motorcycle" id="210903_01_flow_A5N-A3O_motorcycle" probability="0.00032768119052729486" begin="0" end="3999" departLane="best" departSpeed="max" />
    <flow route="A5N-A3O" type="passenger_misc" id="210903_01_flow_A5N-A3O_passenger_misc" probability="0.00073728267868641330" begin="0" end="3999" departLane="best" departSpeed="max" />
    <flow route="A5N-A3O" type="passenger_trailer" id="210903_01_flow_A5N-A3O_passenger_trailer" probability="0.00036864133934320665" begin="0" end="3999" departLane="best" departSpeed="max" />
    <flow route="A5N-A3O" type="bus" id="210903_01_flow_A5N-A3O_bus" probability="0.00008192029763182372" begin="0" end="3999" departLane="best" departSpeed="max" />
    <flow route="A5N-A3O" type="truck" id="210903_01_flow_A5N-A3O_truck" probability="0.00200704729197968097" begin="0" end="3999" departLane="best" departSpeed="max" />
    <flow route="A5N-A3O" type="truck_trailer" id="210903_01_flow_A5N-A3O_truck_trailer" probability="0.00344065250053659588" begin="0" end="3999" departLane="best" departSpeed="max" />
    <flow route="A5N-A3O" type="semitrailer" id="210903_01_flow_A5N-A3O_semitrailer" probability="0.00438273592330256853" begin="0" end="3999" departLane="best" departSpeed="max" />

    <flow route="A5N-A3W" type="passenger" id="210903_01_flow_A5N-A3W_passenger" probability="0.01598697860771267076" begin="0" end="3999" departLane="best" departSpeed="max" />
    <flow route="A5N-A3W" type="van" id="210903_01_flow_A5N-A3W_van" probability="0.00374329255204979569" begin="0" end="3999" departLane="best" departSpeed="max" />
    <flow route="A5N-A3W" type="motorcycle" id="210903_01_flow_A5N-A3W_motorcycle" probability="0.00031194104600414964" begin="0" end="3999" departLane="best" departSpeed="max" />
    <flow route="A5N-A3W" type="passenger_misc" id="210903_01_flow_A5N-A3W_passenger_misc" probability="0.00070186735350933672" begin="0" end="3999" departLane="best" departSpeed="max" />
    <flow route="A5N-A3W" type="passenger_trailer" id="210903_01_flow_A5N-A3W_passenger_trailer" probability="0.00035093367675466836" begin="0" end="3999" departLane="best" departSpeed="max" />
    <flow route="A5N-A3W" type="bus" id="210903_01_flow_A5N-A3W_bus" probability="0.00007798526150103741" begin="0" end="3999" departLane="best" departSpeed="max" />
    <flow route="A5N-A3W" type="truck" id="210903_01_flow_A5N-A3W_truck" probability="0.00191063890677541657" begin="0" end="3999" departLane="best" departSpeed="max" />
    <flow route="A5N-A3W" type="truck_trailer" id="210903_01_flow_A5N-A3W_truck_trailer" probability="0.00327538098304357107" begin="0" end="3999" departLane="best" departSpeed="max" />
    <flow route="A5N-A3W" type="semitrailer" id="210903_01_flow_A5N-A3W_semitrailer" probability="0.00417221149030550138" begin="0" end="3999" departLane="best" departSpeed="max" />

    <flow route="A5N-A5S" type="passenger" id="210903_01_flow_A5N-A5S_passenger" probability="0.06233454961722830617" begin="0" end="3999" departLane="best" departSpeed="max" />
    <flow route="A5N-A5S" type="van" id="210903_01_flow_A5N-A5S_van" probability="0.01459540673964370046" begin="0" end="3999" departLane="best" departSpeed="max" />
    <flow route="A5N-A5S" type="motorcycle" id="210903_01_flow_A5N-A5S_motorcycle" probability="0.00121628389497030844" begin="0" end="3999" departLane="best" departSpeed="max" />
    <flow route="A5N-A5S" type="passenger_misc" id="210903_01_flow_A5N-A5S_passenger_misc" probability="0.00273663876368319394" begin="0" end="3999" departLane="best" departSpeed="max" />
    <flow route="A5N-A5S" type="passenger_trailer" id="210903_01_flow_A5N-A5S_passenger_trailer" probability="0.00136831938184159697" begin="0" end="3999" departLane="best" departSpeed="max" />
    <flow route="A5N-A5S" type="bus" id="210903_01_flow_A5N-A5S_bus" probability="0.00030407097374257711" begin="0" end="3999" departLane="best" departSpeed="max" />
    <flow route="A5N-A5S" type="truck" id="210903_01_flow_A5N-A5S_truck" probability="0.00744973885669314006" begin="0" end="3999" departLane="best" departSpeed="max" />
    <flow route="A5N-A5S" type="truck_trailer" id="210903_01_flow_A5N-A5S_truck_trailer" probability="0.01277098089718823812" begin="0" end="3999" departLane="best" departSpeed="max" />
    <flow route="A5N-A5S" type="semitrailer" id="210903_01_flow_A5N-A5S_semitrailer" probability="0.01626779709522787817" begin="0" end="3999" departLane="best" departSpeed="max" />

    <flow route="A5N-B43W" type="passenger" id="210903_01_flow_A5N-B43W_passenger" probability="0.01650032195750161107" begin="0" end="3999" departLane="best" departSpeed="max" />
    <flow route="A5N-B43W" type="van" id="210903_01_flow_A5N-B43W_van" probability="0.00386349001931745022" begin="0" end="3999" departLane="best" departSpeed="max" />
    <flow route="A5N-B43W" type="motorcycle" id="210903_01_flow_A5N-B43W_motorcycle" probability="0.00032195750160978755" begin="0" end="3999" departLane="best" departSpeed="max" />
    <flow route="A5N-B43W" type="passenger_misc" id="210903_01_flow_A5N-B43W_passenger_misc" probability="0.00072440437862202197" begin="0" end="3999" departLane="best" departSpeed="max" />
    <flow route="A5N-B43W" type="passenger_trailer" id="210903_01_flow_A5N-B43W_passenger_trailer" probability="0.00036220218931101099" begin="0" end="3999" departLane="best" departSpeed="max" />
    <flow route="A5N-B43W" type="bus" id="210903_01_flow_A5N-B43W_bus" probability="0.00008048937540244689" begin="0" end="3999" departLane="best" departSpeed="max" />
    <flow route="A5N-B43W" type="truck" id="210903_01_flow_A5N-B43W_truck" probability="0.00197198969735994881" begin="0" end="3999" departLane="best" departSpeed="max" />
    <flow route="A5N-B43W" type="truck_trailer" id="210903_01_flow_A5N-B43W_truck_trailer" probability="0.00338055376690276927" begin="0" end="3999" departLane="best" departSpeed="max" />
    <flow route="A5N-B43W" type="semitrailer" id="210903_01_flow_A5N-B43W_semitrailer" probability="0.00430618158403090878" begin="0" end="3999" departLane="best" departSpeed="max" />

    <flow route="A5S-A3O" type="passenger" id="210903_01_flow_A5S-A3O_passenger" probability="0.02024353120243531021" begin="0" end="3999" departLane="best" departSpeed="max" />
    <flow route="A5S-A3O" type="van" id="210903_01_flow_A5S-A3O_van" probability="0.00303652968036529670" begin="0" end="3999" departLane="best" departSpeed="max" />
    <flow route="A5S-A3O" type="motorcycle" id="210903_01_flow_A5S-A3O_motorcycle" probability="0.00031963470319634703" begin="0" end="3999" departLane="best" departSpeed="max" />
    <flow route="A5S-A3O" type="passenger_misc" id="210903_01_flow_A5S-A3O_passenger_misc" probability="0.00058599695585996960" begin="0" end="3999" departLane="best" departSpeed="max" />
    <flow route="A5S-A3O" type="passenger_trailer" id="210903_01_flow_A5S-A3O_passenger_trailer" probability="0.00015981735159817351" begin="0" end="3999" departLane="best" departSpeed="max" />
    <flow route="A5S-A3O" type="bus" id="210903_01_flow_A5S-A3O_bus" probability="0.00010654490106544901" begin="0" end="3999" departLane="best" departSpeed="max" />
    <flow route="A5S-A3O" type="truck" id="210903_01_flow_A5S-A3O_truck" probability="0.00191780821917808195" begin="0" end="3999" departLane="best" departSpeed="max" />
    <flow route="A5S-A3O" type="truck_trailer" id="210903_01_flow_A5S-A3O_truck_trailer" probability="0.00484779299847792975" begin="0" end="3999" departLane="best" departSpeed="max" />
    <flow route="A5S-A3O" type="semitrailer" id="210903_01_flow_A5S-A3O_semitrailer" probability="0.00564687975646879694" begin="0" end="3999" departLane="best" departSpeed="max" />

    <flow route="A5S-A3W" type="passenger" id="210903_01_flow_A5S-A3W_passenger" probability="0.00915778792491121069" begin="0" end="3999" departLane="best" departSpeed="max" />
    <flow route="A5S-A3W" type="van" id="210903_01_flow_A5S-A3W_van" probability="0.00137366818873668186" begin="0" end="3999" departLane="best" departSpeed="max" />
    <flow route="A5S-A3W" type="motorcycle" id="210903_01_flow_A5S-A3W_motorcycle" probability="0.00014459665144596652" begin="0" end="3999" departLane="best" departSpeed="max" />
    <flow route="A5S-A3W" type="passenger_misc" id="210903_01_flow_A5S-A3W_passenger_misc" probability="0.00026509386098427193" begin="0" end="3999" departLane="best" departSpeed="max" />
    <flow route="A5S-A3W" type="passenger_trailer" id="210903_01_flow_A5S-A3W_passenger_trailer" probability="0.00007229832572298326" begin="0" end="3999" departLane="best" departSpeed="max" />
    <flow route="A5S-A3W" type="bus" id="210903_01_flow_A5S-A3W_bus" probability="0.00004819888381532217" begin="0" end="3999" departLane="best" departSpeed="max" />