<?xml version="1.0" encoding="UTF-8"?>

<!-- generated on Sa 12 Jun 2021 16:23:26 CEST by Eclipse SUMO netedit Version 1.8.0
<configuration xmlns:xsi="http://www.w3.org/2001/XMLSchema-instance" xsi:noNamespaceSchemaLocation="http://sumo.dlr.de/xsd/netconvertConfiguration.xsd">

    <input>
        <sumo-net-file value="/home/dennis/artery/scenarios/frankfurter-kreuz-config/frankfurter-kreuz/osm.net.xml"/>
    </input>

    <output>
        <output-file value="/home/dennis/artery/scenarios/frankfurter-kreuz-config/frankfurter-kreuz/osm.net.xml"/>
        <output.street-names value="true"/>
    </output>

    <processing>
        <geometry.min-radius.fix.railways value="false"/>
        <geometry.max-grade.fix value="false"/>
        <offset.disable-normalization value="true"/>
        <lefthand value="false"/>
    </processing>

    <junctions>
        <no-turnarounds value="true"/>
        <junctions.corner-detail value="5"/>
        <junctions.limit-turn-speed value="5.5"/>
        <rectangular-lane-cut value="false"/>
    </junctions>

    <pedestrian>
        <walkingareas value="false"/>
    </pedestrian>

    <netedit>
        <route-files value="/home/dennis/artery/scenarios/frankfurter-kreuz-config/frankfurter-kreuz/frankfurter-kreuz.rou.xml"/>
    </netedit>

    <report>
        <aggregate-warnings value="5"/>
    </report>

</configuration>
-->

<routes xmlns:xsi="http://www.w3.org/2001/XMLSchema-instance" xsi:noNamespaceSchemaLocation="http://sumo.dlr.de/xsd/routes_file.xsd">

    <!-- car-like -->
    <vType id="motorcycle"
        vClass="motorcycle"
        
        lcStrategic="0.75"
        lcCooperative="0.7"
        lcLookaheadLeft="0.7"
        lcPushy="0.2"
        lcAssertive="1.5"
        lcSigma="0.2"
    />

    <vType id="passenger"
        vClass="passenger"

        lcStrategic="0.75"
        lcCooperative="0.7"
        lcLookaheadLeft="0.7"
        lcPushy="0.2"
        lcAssertive="1.5"
        lcSigma="0.2"
    />

    <vType id="passenger_misc"
        vClass="passenger"

        lcStrategic="0.75"
        lcCooperative="0.7"
        lcLookaheadLeft="0.7"
        lcPushy="0.2"
        lcAssertive="1.5"
        lcSigma="0.2"
    />

    <vType id="van"
        vClass="passenger"
        guiShape="passenger/van"

        length="4.7"
        width="1.9"
        height="1.73"

        lcStrategic="0.75"
        lcCooperative="0.7"
        lcLookaheadLeft="0.7"
        lcPushy="0.2"
        lcAssertive="1.5"
        lcSigma="0.2"
    />

    <!-- truck-like -->
    <vType id="passenger_trailer"
        vClass="passenger"

        length="7.5"
        width="2"
        height="2.2"

        lcStrategic="0.75"
        lcCooperative="0.7"
        lcLookaheadLeft="0.7"
        lcPushy="0.2"
        lcAssertive="1.5"
        lcSigma="0.2"
    />

    <!--
        truck, semitrailer and truck_trailer size calculated by using inner size from [0]
        and adding 2m length and 1m height according to [1]
        
        [0] https://www.alpensped.de/leistungen/fuhrpark/
        [1] https://www.wuerth-transporte.de/1.html
    -->
    <vType id="truck"
        vClass="truck"

        length="9"
        width="2.45"
        height="3.6"
        maxSpeed="22.22"

        lcStrategic="0.75"
        lcCooperative="0.7"
        lcLookaheadLeft="0.7"
        lcPushy="0.2"
        lcAssertive="1.5"
        lcSigma="0.2"
        lcKeepRight="100"
        lcSpeedGain="0.1"
    />

    <vType id="semitrailer"
        vClass="truck"
        guiShape="truck/semitrailer"

        length="15.6"
        width="2.5"
        height="4.04"
        maxSpeed="22.22"

        lcStrategic="0.75"
        lcCooperative="0.7"
        lcLookaheadLeft="0.7"
        lcPushy="0.2"
        lcAssertive="1.5"
        lcSigma="0.2"
        lcKeepRight="100"
        lcSpeedGain="0.1"
    />

    <vType id="truck_trailer"
        vClass="truck"
        guiShape="truck/trailer"

        length="17.6"
        width="2.5"
        height="4.20"
        maxSpeed="22.22"

        lcStrategic="0.75"
        lcCooperative="0.7"
        lcLookaheadLeft="0.7"
        lcPushy="0.2"
        lcAssertive="1.5"
        lcSigma="0.2"
        lcKeepRight="100"
        lcSpeedGain="0.1"
    />

    <vType id="bus"
        vClass="bus"

        maxSpeed="22.22"

        lcStrategic="0.75"
        lcCooperative="0.7" 
        lcLookaheadLeft="0.7"
        lcPushy="0.2"
        lcAssertive="1.5"
        lcSigma="0.2"
        lcKeepRight="100"
        lcSpeedGain="0.1"
    />

    <vTypeDistribution id="dist" vTypes="motorcycle passenger passenger_misc van passenger_trailer truck semitrailer truck_trailer bus" />


    <route edges="3993621 3993622" color="yellow" id="A3O-A3W"/>
    <route edges="3993621 4488572 387746873 153320423 132979567 23286294 4488573 419865347 4488587 234004932 4488588 39175423" color="yellow" id="A3O-A3W-alt"/>
    <route edges="3993621 4488572 387746873 153320423 132979567 20437071 4780826 132979549 23286356 23286447 A5N1" color="yellow" id="A3O-A5N"/>
    <route edges="3993621 4488572 387746873 153320423 132979567 23286294 4488573 4488575 4488577 23286237 481371695 236522916 A5S2" color="yellow" id="A3O-A5S"/>
    <route edges="133039111 4728785 37976720 152367113 307216717 3993482 153261740 153261739 3993501" color="yellow" id="A3W-A3O"/>
    <route edges="133039111 20644480 108035020 228932147 4728850 387746860 20630373 4893840 234004960 387746834 4488560#0 4488560#1 387746832 4488561 26529486 387746829#1 132979552 A5N1" color="yellow" id="A3W-A5N"/>
    <route edges="133039111 20644480 108035020 228932147 4728850 387746860 4488582 228932146 481371695 236522916 A5S2" color="yellow" id="A3W-A5S"/>
    <route edges="133039111 20644480 108035020 228932147 4728850 387746860 20630373 4893840 234004960 387746834 4488560#0 4488560#1 387746832 4488561 26529486 387746829#1 4488569#0 4488569#1 4743817 419865353 152377568 152377560 152377574#1 234004943 38238212" color="yellow" id="A3W-B43W"/>
    <route edges="A5N2 358653882-AddedOffRampEdge 321554750 387746861 75436542 23286376 4488583 4488577 20630094 4893840 234004960 387746834 4488560#0 4488560#1 387746832 4488561 26529486 387746829#1 132979552 A5N1" color="yellow" id="A5N-A5N"/>
    <route edges="A5N2 358653882-AddedOffRampEdge 321554750 387746861 75436542 23286376 4488583 4488577 20630094 4893840 234004960 387746818 23286266 4488571 307213473 307216717 3993482 153261740 153261739 3993501" color="yellow" id="A5N-A3O"/>
    <route edges="A5N2 358653882-AddedOffRampEdge 321554750 387746861 75436542 23286376 4488585#0 4488585#1 4488588 39175423" color="yellow" id="A5N-A3W"/>
    <route edges="A5N2 358653882-AddedOffRampEdge 23286357 23286423 23286426 A5S2" color="yellow" id="A5N-A5S"/>
    <route edges="A5N2 358653882-AddedOffRampEdge 321554750 4488594 419865353 152377568 152377560 152377574#1 234004943 38238212" color="yellow" id="A5N-B43W"/>
    <route edges="A5S1 4488554 39175135 387746811 156265645 23286275 4488571 307213473 307216717 3993482 153261740 153261739 3993501" color="yellow" id="A5S-A3O"/>
    <route edges="A5S1 4488554 20629597 387746862 132979565 4488561 387746825 4488563 4488573 419865347 4488587 234004932 4488588 39175423" color="yellow" id="A5S-A3W"/>
    <route edges="A5S1 23286478 23286356 23286447 A5N1" color="yellow" id="A5S-A5N"/>
    <route edges="A5S1 4488554 20629597 387746862 132979565 4488561 26529486 387746829#1 132979552 A5N1" color="yellow" id="A5S-A5N-alt"/>
    <route edges="A5S1 4488554 20629597 387746862 132979565 4488561 26529486 387746829#1 4488569#0 4488569#1 4743817 419865353 152377568 152377560 152377574#1 234004943 38238212" color="yellow" id="A5S-B43W"/>
    <route edges="23337333 4746513 23337441 4743817 419865353 152377568 152377560 152377574#1 234004943 38238212" color="yellow" id="B43O-B43W"/>
    <route edges="89837133 152303549 433450247 45781803 152377567 152377561 152446429 49203928 387746833 4780826 132979549 23286356 23286447 A5N1" color="yellow" id="B43W-A5N"/>
    <route edges="89837133 152303549 433450247 45781803 152377567 152377561 152446429 4488584#0 4488584#1 23286423 23286426 A5S2" color="yellow" id="B43W-A5S"/>
    <route edges="89837133 152303549 433450247 45781803 152377567 152377561 152446429 49203928 4743818 23337443 4746512" color="yellow" id="B43W-B43O"/>
    
    <!-- These flows almost match the values found on wikipedia: https://commons.wikimedia.org/wiki/File:AK-Frankfurter_Kreuz,_DTV.PNG -->

    <flow type="dist" id="flow_A3O-A3W"      begin="0.00" departLane="best" departSpeed="max" route="A3O-A3W"     end="10800.00" vehsPerHour="1475"/>
    <flow type="dist" id="flow_A3O-A3W-alt"  begin="0.00" departLane="best" departSpeed="max" route="A3O-A3W-alt" end="10800.00" vehsPerHour="237"/>
    <flow type="dist" id="flow_A3O-A5N"      begin="0.00" departLane="best" departSpeed="max" route="A3O-A5N"     end="10800.00" vehsPerHour="639"/>
    <flow type="dist" id="flow_A3O-A5S"      begin="0.00" departLane="best" departSpeed="max" route="A3O-A5S"     end="10800.00" vehsPerHour="326"/>
    
    <flow type="dist" id="flow_A3W-A3O"      begin="0.00" departLane="best" departSpeed="max" route="A3W-A3O"     end="10800.00" vehsPerHour="1712"/>
    <flow type="dist" id="flow_A3W-A5N"      begin="0.00" departLane="best" departSpeed="max" route="A3W-A5N"     end="10800.00" vehsPerHour="353"/>
    <flow type="dist" id="flow_A3W-A5S"      begin="0.00" departLane="best" departSpeed="max" route="A3W-A5S"     end="10800.00" vehsPerHour="428"/>
    <flow type="dist" id="flow_A3W-B43W"     begin="0.00" departLane="best" departSpeed="max" route="A3W-B43W"    end="10800.00" vehsPerHour="4"/>
    
    <flow type="dist" id="flow_A5N-A5N"      begin="0.00" departLane="best" departSpeed="max" route="A5N-A5N"     end="10800.00" vehsPerHour="62"/>
    <flow type="dist" id="flow_A5N-A3O"      begin="0.00" departLane="best" departSpeed="max" route="A5N-A3O"     end="10800.00" vehsPerHour="458"/>
    <flow type="dist" id="flow_A5N-A3W"      begin="0.00" departLane="best" departSpeed="max" route="A5N-A3W"     end="10800.00" vehsPerHour="436"/>
    <flow type="dist" id="flow_A5N-A5S"      begin="0.00" departLane="best" departSpeed="max" route="A5N-A5S"     end="10800.00" vehsPerHour="1700"/>
    <flow type="dist" id="flow_A5N-B43W"     begin="0.00" departLane="best" departSpeed="max" route="A5N-B43W"    end="10800.00" vehsPerHour="450"/>
    
    <flow type="dist" id="flow_A5S-A3O"      begin="0.00" departLane="best" departSpeed="max" route="A5S-A3O"     end="10800.00" vehsPerHour="546"/>
    <flow type="dist" id="flow_A5S-A3W"      begin="0.00" departLane="best" departSpeed="max" route="A5S-A3W"     end="10800.00" vehsPerHour="247"/>
    <flow type="dist" id="flow_A5S-A5N"      begin="0.00" departLane="best" departSpeed="max" route="A5S-A5N"     end="10800.00" vehsPerHour="1700"/>
    <flow type="dist" id="flow_A5S-A5N-alt"  begin="0.00" departLane="best" departSpeed="max" route="A5S-A5N-alt" end="10800.00" vehsPerHour="5"/>
    <flow type="dist" id="flow_A5S-B43W"     begin="0.00" departLane="best" departSpeed="max" route="A5S-B43W"    end="10800.00" vehsPerHour="349"/>
    
    <flow type="dist" id="flow_B43O-B43W"    begin="0.00" departLane="best" departSpeed="max" route="B43O-B43W"   end="10800.00" vehsPerHour="708"/>
    
    <flow type="dist" id="flow_B43W-A5N"     begin="0.00" departLane="best" departSpeed="max" route="B43W-A5N"    end="10800.00" vehsPerHour="446"/>
    <flow type="dist" id="flow_B43W-A5S"     begin="0.00" departLane="best" departSpeed="max" route="B43W-A5S"    end="10800.00" vehsPerHour="279"/>
    <flow type="dist" id="flow_B43W-B43O"    begin="0.00" departLane="best" departSpeed="max" route="B43W-B43O"   end="10800.00" vehsPerHour="708"/>

</routes>
